@<TRIPOS>MOLECULE
18652-1
55   56    1
SMALL
USER_CHARGES


@<TRIPOS>ATOM
      1 C1          6.0920   -4.2968   -7.4950 C.3       1 SUB         0.0000 
      2 C2          6.9040   -3.3690   -6.5820 C.3       1 SUB         0.0000 
      3 C3          6.1319   -2.9465   -5.3239 C.3       1 SUB         0.0000 
      4 O4          8.2190   -3.8440   -6.3210 O.3       1 SUB         0.0000 
      5 C5          8.3160   -5.0150   -5.5440 C.ar      1 SUB         0.0000 
      6 N6          7.6980   -6.1830   -5.9580 N.ar      1 SUB         0.0000 
      7 C7          7.7910   -7.3200   -5.2090 C.ar      1 SUB         0.0000 
      8 C8          8.5290   -7.3410   -3.9830 C.ar      1 SUB         0.0000 
      9 C9          9.1690   -6.1550   -3.5390 C.ar      1 SUB         0.0000 
     10 N10         9.8670   -6.1900   -2.3670 N.pl3     1 SUB         0.0000 
     11 C11         9.0640   -4.9660   -4.3340 C.ar      1 SUB         0.0000 
     12 C12         9.6950   -3.7240   -3.9280 C.1       1 SUB         0.0000 
     13 N13        10.1750   -2.7160   -3.6180 N.1       1 SUB         0.0000 
     14 N14         7.1100   -8.3740   -5.7640 N.am      1 SUB         0.0000 
     15 C15         7.2650   -9.7170   -5.6400 C.2       1 SUB         0.0000 
     16 O16         8.0920  -10.3060   -4.9700 O.2       1 SUB         0.0000 
     17 C17         6.2450  -10.5070   -6.4640 C.3       1 SUB         0.0000 
     18 C18         6.7220  -10.6690   -7.8990 C.ar      1 SUB         0.0000 
     19 C19         6.4610   -9.6570   -8.8890 C.ar      1 SUB         0.0000 
     20 O20         5.7599   -8.5344   -8.4846 O.3       1 SUB         0.0000 
     21 C21         5.6308   -7.4278   -9.3746 C.3       1 SUB         0.0000 
     22 C22         6.9370   -9.8520  -10.2360 C.ar      1 SUB         0.0000 
     23 C23         7.6580  -11.0380  -10.6030 C.ar      1 SUB         0.0000 
     24 S24         8.1816  -11.2439  -12.3107 S.o2      1 SUB         0.0000 
     25 O25         7.8587  -10.0147  -13.0536 O.2       1 SUB         0.0000 
     26 O26         9.5626  -11.7522  -12.3277 O.2       1 SUB         0.0000 
     27 C27         7.0839  -12.5740  -12.9459 C.3       1 SUB         0.0000 
     28 C28         7.9130  -12.0610   -9.5930 C.ar      1 SUB         0.0000 
     29 C29         7.4370  -11.8480   -8.2710 C.ar      1 SUB         0.0000 
     30 O30         8.6208  -13.1729   -9.9981 O.3       1 SUB         0.0000 
     31 C31         8.5402  -14.3636   -9.2180 C.3       1 SUB         0.0000 
     32 H32         6.6746   -4.5500   -8.3747 H         1 SUB         0.0000 
     33 H33         5.8151   -5.2288   -7.0082 H         1 SUB         0.0000 
     34 H34         5.1681   -3.8180   -7.8172 H         1 SUB         0.0000 
     35 H35         7.0694   -2.4543   -7.1543 H         1 SUB         0.0000 
     36 H36         6.6956   -2.1964   -4.7751 H         1 SUB         0.0000 
     37 H37         5.1730   -2.5025   -5.5879 H         1 SUB         0.0000 
     38 H38         5.9280   -3.7745   -4.6477 H         1 SUB         0.0000 
     39 H39         8.5967   -8.2336   -3.3839 H         1 SUB         0.0000 
     40 H40         9.9209   -7.0979   -1.8033 H         1 SUB         0.0000 
     41 H41        10.3604   -5.3096   -2.0117 H         1 SUB         0.0000 
     42 H42         6.3225   -8.0654   -6.3123 H         1 SUB         0.0000 
     43 H43         6.0443  -11.4663   -5.9964 H         1 SUB         0.0000 
     44 H44         5.3192   -9.9420   -6.4197 H         1 SUB         0.0000 
     45 H45         5.0598   -7.6908  -10.2663 H         1 SUB         0.0000 
     46 H46         5.0951   -6.6230   -8.8708 H         1 SUB         0.0000 
     47 H47         6.6032   -7.0330   -9.6729 H         1 SUB         0.0000 
     48 H48         6.7610   -9.1033  -10.9918 H         1 SUB         0.0000 
     49 H49         6.0464  -12.2581  -12.8576 H         1 SUB         0.0000 
     50 H50         7.3258  -12.7696  -13.9883 H         1 SUB         0.0000 
     51 H51         7.2431  -13.4750  -12.3554 H         1 SUB         0.0000 
     52 H52         7.6084  -12.6075   -7.5253 H         1 SUB         0.0000 
     53 H53         8.9801  -14.2488   -8.2283 H         1 SUB         0.0000 
     54 H54         7.5100  -14.7014   -9.1090 H         1 SUB         0.0000 
     55 H55         9.0897  -15.1581   -9.7224 H         1 SUB         0.0000 
@<TRIPOS>BOND
     1    1    2 1    
     2    1   32 1    
     3    1   33 1    
     4    1   34 1    
     5    2    3 1    
     6    2    4 1    
     7    2   35 1    
     8    3   36 1    
     9    3   37 1    
    10    3   38 1    
    11    4    5 1    
    12    5    6 ar   
    13    5   11 ar   
    14    6    7 ar   
    15    7    8 ar   
    16    7   14 1    
    17    8    9 ar   
    18    8   39 1    
    19    9   10 1    
    20    9   11 ar   
    21   10   40 1    
    22   10   41 1    
    23   11   12 1    
    24   12   13 3    
    25   14   15 am   BACKBONE|DICT|INTERRES
    26   14   42 1    
    27   15   16 2    
    28   15   17 1    
    29   17   18 1    
    30   17   43 1    
    31   17   44 1    
    32   18   19 ar   
    33   18   29 ar   
    34   19   20 1    
    35   19   22 ar   
    36   20   21 1    
    37   21   45 1    
    38   21   46 1    
    39   21   47 1    
    40   22   23 ar   
    41   22   48 1    
    42   23   24 1    
    43   23   28 ar   
    44   24   25 2    
    45   24   26 2    
    46   24   27 1    
    47   27   49 1    
    48   27   50 1    
    49   27   51 1    
    50   28   29 ar   
    51   28   30 1    
    52   29   52 1    
    53   30   31 1    
    54   31   53 1    
    55   31   54 1    
    56   31   55 1    
@<TRIPOS>SUBSTRUCTURE
     1 SUB         1 GROUP             0       ****    0 ROOT    
