@<TRIPOS>MOLECULE
18658-1
47   48    1
SMALL
USER_CHARGES


@<TRIPOS>ATOM
      1 O1          5.7164   -1.4107   -7.4280 O.3       1 SUB         0.0000 
      2 C2          7.0004   -1.9881   -7.2488 C.3       1 SUB         0.0000 
      3 C3          6.9040   -3.3690   -6.5820 C.3       1 SUB         0.0000 
      4 O4          8.2190   -3.8440   -6.3210 O.3       1 SUB         0.0000 
      5 C5          8.3160   -5.0150   -5.5440 C.ar      1 SUB         0.0000 
      6 N6          7.6980   -6.1830   -5.9580 N.ar      1 SUB         0.0000 
      7 C7          7.7910   -7.3200   -5.2090 C.ar      1 SUB         0.0000 
      8 C8          8.5290   -7.3410   -3.9830 C.ar      1 SUB         0.0000 
      9 C9          9.1690   -6.1550   -3.5390 C.ar      1 SUB         0.0000 
     10 N10         9.8670   -6.1900   -2.3670 N.pl3     1 SUB         0.0000 
     11 C11         9.0640   -4.9660   -4.3340 C.ar      1 SUB         0.0000 
     12 C12         9.6950   -3.7240   -3.9280 C.1       1 SUB         0.0000 
     13 N13        10.1750   -2.7160   -3.6180 N.1       1 SUB         0.0000 
     14 N14         7.1100   -8.3740   -5.7640 N.am      1 SUB         0.0000 
     15 C15         7.2650   -9.7170   -5.6400 C.2       1 SUB         0.0000 
     16 O16         8.0920  -10.3060   -4.9700 O.2       1 SUB         0.0000 
     17 C17         6.2450  -10.5070   -6.4640 C.3       1 SUB         0.0000 
     18 C18         6.7220  -10.6690   -7.8990 C.ar      1 SUB         0.0000 
     19 C19         6.4610   -9.6570   -8.8890 C.ar      1 SUB         0.0000 
     20 O20         5.7599   -8.5344   -8.4846 O.3       1 SUB         0.0000 
     21 C21         5.6308   -7.4278   -9.3746 C.3       1 SUB         0.0000 
     22 C22         6.9370   -9.8520  -10.2360 C.ar      1 SUB         0.0000 
     23 C23         7.6580  -11.0380  -10.6030 C.ar      1 SUB         0.0000 
     24 C24         7.9130  -12.0610   -9.5930 C.ar      1 SUB         0.0000 
     25 C25         7.4370  -11.8480   -8.2710 C.ar      1 SUB         0.0000 
     26 O26         8.6208  -13.1729   -9.9981 O.3       1 SUB         0.0000 
     27 C27         8.5402  -14.3636   -9.2180 C.3       1 SUB         0.0000 
     28 H28         5.3942   -1.0790   -6.5691 H         1 SUB         0.0000 
     29 H29         7.4938   -2.0789   -8.2180 H         1 SUB         0.0000 
     30 H30         7.6146   -1.3188   -6.6434 H         1 SUB         0.0000 
     31 H31         6.3436   -3.2835   -5.6480 H         1 SUB         0.0000 
     32 H32         6.3659   -4.0668   -7.2267 H         1 SUB         0.0000 
     33 H33         8.5935   -8.2320   -3.3813 H         1 SUB         0.0000 
     34 H34         9.9209   -7.0979   -1.8033 H         1 SUB         0.0000 
     35 H35        10.3604   -5.3096   -2.0117 H         1 SUB         0.0000 
     36 H36         6.3405   -8.0715   -6.3420 H         1 SUB         0.0000 
     37 H37         6.0425  -11.4668   -5.9963 H         1 SUB         0.0000 
     38 H38         5.3196   -9.9410   -6.4244 H         1 SUB         0.0000 
     39 H39         5.0598   -7.6908  -10.2663 H         1 SUB         0.0000 
     40 H40         5.0951   -6.6230   -8.8708 H         1 SUB         0.0000 
     41 H41         6.6032   -7.0330   -9.6729 H         1 SUB         0.0000 
     42 H42         6.7704   -9.1064  -10.9982 H         1 SUB         0.0000 
     43 H43         7.9996  -11.1713  -11.6193 H         1 SUB         0.0000 
     44 H44         7.6235  -12.6074   -7.5280 H         1 SUB         0.0000 
     45 H45         9.0897  -15.1581   -9.7224 H         1 SUB         0.0000 
     46 H46         8.9801  -14.2488   -8.2283 H         1 SUB         0.0000 
     47 H47         7.5100  -14.7014   -9.1090 H         1 SUB         0.0000 
@<TRIPOS>BOND
     1    1    2 1    
     2    1   28 1    
     3    2    3 1    
     4    2   29 1    
     5    2   30 1    
     6    3    4 1    
     7    3   31 1    
     8    3   32 1    
     9    4    5 1    
    10    5    6 ar   
    11    5   11 ar   
    12    6    7 ar   
    13    7    8 ar   
    14    7   14 1    
    15    8    9 ar   
    16    8   33 1    
    17    9   10 1    
    18    9   11 ar   
    19   10   34 1    
    20   10   35 1    
    21   11   12 1    
    22   12   13 3    
    23   14   15 am   BACKBONE|DICT|INTERRES
    24   14   36 1    
    25   15   16 2    
    26   15   17 1    
    27   17   18 1    
    28   17   37 1    
    29   17   38 1    
    30   18   19 ar   
    31   18   25 ar   
    32   19   20 1    
    33   19   22 ar   
    34   20   21 1    
    35   21   39 1    
    36   21   40 1    
    37   21   41 1    
    38   22   23 ar   
    39   22   42 1    
    40   23   24 ar   
    41   23   43 1    
    42   24   25 ar   
    43   24   26 1    
    44   25   44 1    
    45   26   27 1    
    46   27   45 1    
    47   27   46 1    
    48   27   47 1    
@<TRIPOS>SUBSTRUCTURE
     1 SUB         1 GROUP             0       ****    0 ROOT    
