@<TRIPOS>MOLECULE
18660-1
52   53    1
SMALL
USER_CHARGES


@<TRIPOS>ATOM
      1 C1          9.5137   -0.9552   -5.9447 C.3       1 SUB         0.0000 
      2 S2          7.9908   -0.8325   -6.9457 S.o2      1 SUB         0.0000 
      3 O3          7.5079    0.5527   -6.8474 O.2       1 SUB         0.0000 
      4 O4          8.2551   -1.4317   -8.2595 O.2       1 SUB         0.0000 
      5 C5          6.8086   -1.9265   -6.0793 C.3       1 SUB         0.0000 
      6 C6          6.9040   -3.3690   -6.5820 C.3       1 SUB         0.0000 
      7 O7          8.2190   -3.8440   -6.3210 O.3       1 SUB         0.0000 
      8 C8          8.3160   -5.0150   -5.5440 C.ar      1 SUB         0.0000 
      9 N9          7.6980   -6.1830   -5.9580 N.ar      1 SUB         0.0000 
     10 C10         7.7910   -7.3200   -5.2090 C.ar      1 SUB         0.0000 
     11 C11         8.5290   -7.3410   -3.9830 C.ar      1 SUB         0.0000 
     12 C12         9.1690   -6.1550   -3.5390 C.ar      1 SUB         0.0000 
     13 N13         9.8670   -6.1900   -2.3670 N.pl3     1 SUB         0.0000 
     14 C14         9.0640   -4.9660   -4.3340 C.ar      1 SUB         0.0000 
     15 C15         9.6950   -3.7240   -3.9280 C.1       1 SUB         0.0000 
     16 N16        10.1750   -2.7160   -3.6180 N.1       1 SUB         0.0000 
     17 N17         7.1100   -8.3740   -5.7640 N.am      1 SUB         0.0000 
     18 C18         7.2650   -9.7170   -5.6400 C.2       1 SUB         0.0000 
     19 O19         8.0920  -10.3060   -4.9700 O.2       1 SUB         0.0000 
     20 C20         6.2450  -10.5070   -6.4640 C.3       1 SUB         0.0000 
     21 C21         6.7220  -10.6690   -7.8990 C.ar      1 SUB         0.0000 
     22 C22         6.4610   -9.6570   -8.8890 C.ar      1 SUB         0.0000 
     23 O23         5.7599   -8.5344   -8.4846 O.3       1 SUB         0.0000 
     24 C24         5.6308   -7.4278   -9.3746 C.3       1 SUB         0.0000 
     25 C25         6.9370   -9.8520  -10.2360 C.ar      1 SUB         0.0000 
     26 C26         7.6580  -11.0380  -10.6030 C.ar      1 SUB         0.0000 
     27 C27         7.9130  -12.0610   -9.5930 C.ar      1 SUB         0.0000 
     28 C28         7.4370  -11.8480   -8.2710 C.ar      1 SUB         0.0000 
     29 O29         8.6208  -13.1729   -9.9981 O.3       1 SUB         0.0000 
     30 C30         8.5402  -14.3636   -9.2180 C.3       1 SUB         0.0000 
     31 H31         9.2990   -0.6525   -4.9226 H         1 SUB         0.0000 
     32 H32         9.8694   -1.9812   -5.9577 H         1 SUB         0.0000 
     33 H33        10.2730   -0.3095   -6.3794 H         1 SUB         0.0000 
     34 H34         6.9854   -1.8519   -5.0092 H         1 SUB         0.0000 
     35 H35         5.8151   -1.5272   -6.2703 H         1 SUB         0.0000 
     36 H36         6.0818   -3.9366   -6.1453 H         1 SUB         0.0000 
     37 H37         6.7335   -3.4192   -7.6584 H         1 SUB         0.0000 
     38 H38         8.5931   -8.2324   -3.3827 H         1 SUB         0.0000 
     39 H39        10.3604   -5.3096   -2.0117 H         1 SUB         0.0000 
     40 H40         9.9209   -7.0979   -1.8033 H         1 SUB         0.0000 
     41 H41         6.2942   -8.0775   -6.2770 H         1 SUB         0.0000 
     42 H42         6.0362  -11.4616   -5.9924 H         1 SUB         0.0000 
     43 H43         5.3269   -9.9308   -6.4212 H         1 SUB         0.0000 
     44 H44         5.0598   -7.6908  -10.2663 H         1 SUB         0.0000 
     45 H45         5.0951   -6.6230   -8.8708 H         1 SUB         0.0000 
     46 H46         6.6032   -7.0330   -9.6729 H         1 SUB         0.0000 
     47 H47         6.7680   -9.1088  -10.9997 H         1 SUB         0.0000 
     48 H48         7.9974  -11.1728  -11.6199 H         1 SUB         0.0000 
     49 H49         7.6181  -12.6091   -7.5290 H         1 SUB         0.0000 
     50 H50         9.0897  -15.1581   -9.7224 H         1 SUB         0.0000 
     51 H51         8.9801  -14.2488   -8.2283 H         1 SUB         0.0000 
     52 H52         7.5100  -14.7014   -9.1090 H         1 SUB         0.0000 
@<TRIPOS>BOND
     1    1    2 1    
     2    1   31 1    
     3    1   32 1    
     4    1   33 1    
     5    2    3 2    
     6    2    4 2    
     7    2    5 1    
     8    5    6 1    
     9    5   34 1    
    10    5   35 1    
    11    6    7 1    
    12    6   36 1    
    13    6   37 1    
    14    7    8 1    
    15    8    9 ar   
    16    8   14 ar   
    17    9   10 ar   
    18   10   11 ar   
    19   10   17 1    
    20   11   12 ar   
    21   11   38 1    
    22   12   13 1    
    23   12   14 ar   
    24   13   39 1    
    25   13   40 1    
    26   14   15 1    
    27   15   16 3    
    28   17   18 am   BACKBONE|DICT|INTERRES
    29   17   41 1    
    30   18   19 2    
    31   18   20 1    
    32   20   21 1    
    33   20   42 1    
    34   20   43 1    
    35   21   22 ar   
    36   21   28 ar   
    37   22   23 1    
    38   22   25 ar   
    39   23   24 1    
    40   24   44 1    
    41   24   45 1    
    42   24   46 1    
    43   25   26 ar   
    44   25   47 1    
    45   26   27 ar   
    46   26   48 1    
    47   27   28 ar   
    48   27   29 1    
    49   28   49 1    
    50   29   30 1    
    51   30   50 1    
    52   30   51 1    
    53   30   52 1    
@<TRIPOS>SUBSTRUCTURE
     1 SUB         1 GROUP             0       ****    0 ROOT    
