@<TRIPOS>MOLECULE
18637-1
53   54    1
SMALL
USER_CHARGES


@<TRIPOS>ATOM
      1 C1          7.0199   -2.1697   -7.5259 C.3       1 SUB         0.0000 
      2 C2          6.9040   -3.3690   -6.5820 C.3       1 SUB         0.0000 
      3 O3          8.2190   -3.8440   -6.3210 O.3       1 SUB         0.0000 
      4 C4          8.3160   -5.0150   -5.5440 C.ar      1 SUB         0.0000 
      5 N5          7.6980   -6.1830   -5.9580 N.ar      1 SUB         0.0000 
      6 C6          7.7910   -7.3200   -5.2090 C.ar      1 SUB         0.0000 
      7 C7          8.5290   -7.3410   -3.9830 C.ar      1 SUB         0.0000 
      8 C8          9.1690   -6.1550   -3.5390 C.ar      1 SUB         0.0000 
      9 N9          9.8670   -6.1900   -2.3670 N.pl3     1 SUB         0.0000 
     10 C10         9.0640   -4.9660   -4.3340 C.ar      1 SUB         0.0000 
     11 C11         9.6950   -3.7240   -3.9280 C.1       1 SUB         0.0000 
     12 N12        10.1750   -2.7160   -3.6180 N.1       1 SUB         0.0000 
     13 N13         7.1100   -8.3740   -5.7640 N.am      1 SUB         0.0000 
     14 C14         7.2650   -9.7170   -5.6400 C.2       1 SUB         0.0000 
     15 O15         8.0920  -10.3060   -4.9700 O.2       1 SUB         0.0000 
     16 C16         6.2450  -10.5070   -6.4640 C.3       1 SUB         0.0000 
     17 C17         6.7220  -10.6690   -7.8990 C.ar      1 SUB         0.0000 
     18 C18         6.4610   -9.6570   -8.8890 C.ar      1 SUB         0.0000 
     19 O19         5.7599   -8.5344   -8.4846 O.3       1 SUB         0.0000 
     20 C20         5.6308   -7.4278   -9.3746 C.3       1 SUB         0.0000 
     21 C21         6.9370   -9.8520  -10.2360 C.ar      1 SUB         0.0000 
     22 C22         7.6580  -11.0380  -10.6030 C.ar      1 SUB         0.0000 
     23 C23         7.9130  -12.0610   -9.5930 C.ar      1 SUB         0.0000 
     24 C24         7.4370  -11.8480   -8.2710 C.ar      1 SUB         0.0000 
     25 O25         8.6208  -13.1729   -9.9981 O.3       1 SUB         0.0000 
     26 C26         8.5402  -14.3636   -9.2180 C.3       1 SUB         0.0000 
     27 N27         8.1621  -11.2793  -11.9022 N.am      1 SUB         0.0000 
     28 C28         8.0740  -10.5714  -13.0401 C.2       1 SUB         0.0000 
     29 O29         7.4440   -9.5271  -13.1732 O.2       1 SUB         0.0000 
     30 C30         8.8416  -11.1137  -14.2330 C.3       1 SUB         0.0000 
     31 H31         6.0404   -1.7416   -7.7374 H         1 SUB         0.0000 
     32 H32         7.6383   -1.3874   -7.0844 H         1 SUB         0.0000 
     33 H33         7.4749   -2.4599   -8.4728 H         1 SUB         0.0000 
     34 H34         6.4177   -3.0744   -5.6493 H         1 SUB         0.0000 
     35 H35         6.2931   -4.1455   -7.0483 H         1 SUB         0.0000 
     36 H36         8.5961   -8.2313   -3.3809 H         1 SUB         0.0000 
     37 H37        10.3604   -5.3096   -2.0117 H         1 SUB         0.0000 
     38 H38         9.9209   -7.0979   -1.8033 H         1 SUB         0.0000 
     39 H39         6.3381   -8.0698   -6.3369 H         1 SUB         0.0000 
     40 H40         6.0412  -11.4659   -5.9946 H         1 SUB         0.0000 
     41 H41         5.3224   -9.9375   -6.4223 H         1 SUB         0.0000 
     42 H42         6.6032   -7.0330   -9.6729 H         1 SUB         0.0000 
     43 H43         5.0598   -7.6908  -10.2663 H         1 SUB         0.0000 
     44 H44         5.0951   -6.6230   -8.8708 H         1 SUB         0.0000 
     45 H45         6.7569   -9.0859  -10.9694 H         1 SUB         0.0000 
     46 H46         7.6217  -12.6033   -7.5226 H         1 SUB         0.0000 
     47 H47         9.0897  -15.1581   -9.7224 H         1 SUB         0.0000 
     48 H48         8.9801  -14.2488   -8.2283 H         1 SUB         0.0000 
     49 H49         7.5100  -14.7014   -9.1090 H         1 SUB         0.0000 
     50 H50         8.6907  -12.1374  -11.9457 H         1 SUB         0.0000 
     51 H51         9.3973  -12.0210  -13.9985 H         1 SUB         0.0000 
     52 H52         8.1490  -11.3313  -15.0445 H         1 SUB         0.0000 
     53 H53         9.5478  -10.3588  -14.5790 H         1 SUB         0.0000 
@<TRIPOS>BOND
     1    1    2 1    
     2    1   31 1    
     3    1   32 1    
     4    1   33 1    
     5    2    3 1    
     6    2   34 1    
     7    2   35 1    
     8    3    4 1    
     9    4    5 ar   
    10    4   10 ar   
    11    5    6 ar   
    12    6    7 ar   
    13    6   13 1    
    14    7    8 ar   
    15    7   36 1    
    16    8    9 1    
    17    8   10 ar   
    18    9   37 1    
    19    9   38 1    
    20   10   11 1    
    21   11   12 3    
    22   13   14 am   BACKBONE|DICT|INTERRES
    23   13   39 1    
    24   14   15 2    
    25   14   16 1    
    26   16   17 1    
    27   16   40 1    
    28   16   41 1    
    29   17   18 ar   
    30   17   24 ar   
    31   18   19 1    
    32   18   21 ar   
    33   19   20 1    
    34   20   42 1    
    35   20   43 1    
    36   20   44 1    
    37   21   22 ar   
    38   21   45 1    
    39   22   23 ar   
    40   22   27 1    
    41   23   24 ar   
    42   23   25 1    
    43   24   46 1    
    44   25   26 1    
    45   26   47 1    
    46   26   48 1    
    47   26   49 1    
    48   27   28 am   BACKBONE|DICT|INTERRES
    49   27   50 1    
    50   28   29 2    
    51   28   30 1    
    52   30   51 1    
    53   30   52 1    
    54   30   53 1    
@<TRIPOS>SUBSTRUCTURE
     1 SUB         1 GROUP             0       ****    0 ROOT    
