@<TRIPOS>MOLECULE
18659-1
50   51    1
SMALL
USER_CHARGES


@<TRIPOS>ATOM
      1 C1          4.9787   -0.9703   -7.1069 C.3       1 SUB         0.0000 
      2 O2          5.7376   -1.7415   -8.0325 O.3       1 SUB         0.0000 
      3 C3          7.0071   -2.1671   -7.5387 C.3       1 SUB         0.0000 
      4 C4          6.9040   -3.3690   -6.5820 C.3       1 SUB         0.0000 
      5 O5          8.2190   -3.8440   -6.3210 O.3       1 SUB         0.0000 
      6 C6          8.3160   -5.0150   -5.5440 C.ar      1 SUB         0.0000 
      7 N7          7.6980   -6.1830   -5.9580 N.ar      1 SUB         0.0000 
      8 C8          7.7910   -7.3200   -5.2090 C.ar      1 SUB         0.0000 
      9 C9          8.5290   -7.3410   -3.9830 C.ar      1 SUB         0.0000 
     10 C10         9.1690   -6.1550   -3.5390 C.ar      1 SUB         0.0000 
     11 N11         9.8670   -6.1900   -2.3670 N.pl3     1 SUB         0.0000 
     12 C12         9.0640   -4.9660   -4.3340 C.ar      1 SUB         0.0000 
     13 C13         9.6950   -3.7240   -3.9280 C.1       1 SUB         0.0000 
     14 N14        10.1750   -2.7160   -3.6180 N.1       1 SUB         0.0000 
     15 N15         7.1100   -8.3740   -5.7640 N.am      1 SUB         0.0000 
     16 C16         7.2650   -9.7170   -5.6400 C.2       1 SUB         0.0000 
     17 O17         8.0920  -10.3060   -4.9700 O.2       1 SUB         0.0000 
     18 C18         6.2450  -10.5070   -6.4640 C.3       1 SUB         0.0000 
     19 C19         6.7220  -10.6690   -7.8990 C.ar      1 SUB         0.0000 
     20 C20         6.4610   -9.6570   -8.8890 C.ar      1 SUB         0.0000 
     21 O21         5.7599   -8.5344   -8.4846 O.3       1 SUB         0.0000 
     22 C22         5.6308   -7.4278   -9.3746 C.3       1 SUB         0.0000 
     23 C23         6.9370   -9.8520  -10.2360 C.ar      1 SUB         0.0000 
     24 C24         7.6580  -11.0380  -10.6030 C.ar      1 SUB         0.0000 
     25 C25         7.9130  -12.0610   -9.5930 C.ar      1 SUB         0.0000 
     26 C26         7.4370  -11.8480   -8.2710 C.ar      1 SUB         0.0000 
     27 O27         8.6208  -13.1729   -9.9981 O.3       1 SUB         0.0000 
     28 C28         8.5402  -14.3636   -9.2180 C.3       1 SUB         0.0000 
     29 H29         4.0410   -0.6658   -7.5719 H         1 SUB         0.0000 
     30 H30         4.7303   -1.5360   -6.2079 H         1 SUB         0.0000 
     31 H31         5.5098   -0.0637   -6.8114 H         1 SUB         0.0000 
     32 H32         7.5982   -2.4620   -8.4059 H         1 SUB         0.0000 
     33 H33         7.5518   -1.3431   -7.0733 H         1 SUB         0.0000 
     34 H34         6.4155   -3.0821   -5.6495 H         1 SUB         0.0000 
     35 H35         6.3009   -4.1515   -7.0471 H         1 SUB         0.0000 
     36 H36         8.5943   -8.2301   -3.3793 H         1 SUB         0.0000 
     37 H37         9.9209   -7.0979   -1.8033 H         1 SUB         0.0000 
     38 H38        10.3604   -5.3096   -2.0117 H         1 SUB         0.0000 
     39 H39         6.3391   -8.0713   -6.3394 H         1 SUB         0.0000 
     40 H40         6.0431  -11.4674   -5.9966 H         1 SUB         0.0000 
     41 H41         5.3186   -9.9420   -6.4239 H         1 SUB         0.0000 
     42 H42         5.0598   -7.6908  -10.2663 H         1 SUB         0.0000 
     43 H43         6.6032   -7.0330   -9.6729 H         1 SUB         0.0000 
     44 H44         5.0951   -6.6230   -8.8708 H         1 SUB         0.0000 
     45 H45         6.7718   -9.1056  -10.9977 H         1 SUB         0.0000 
     46 H46         8.0011  -11.1703  -11.6189 H         1 SUB         0.0000 
     47 H47         7.6243  -12.6069   -7.5277 H         1 SUB         0.0000 
     48 H48         9.0897  -15.1581   -9.7224 H         1 SUB         0.0000 
     49 H49         8.9801  -14.2488   -8.2283 H         1 SUB         0.0000 
     50 H50         7.5100  -14.7014   -9.1090 H         1 SUB         0.0000 
@<TRIPOS>BOND
     1    1    2 1    
     2    1   29 1    
     3    1   30 1    
     4    1   31 1    
     5    2    3 1    
     6    3    4 1    
     7    3   32 1    
     8    3   33 1    
     9    4    5 1    
    10    4   34 1    
    11    4   35 1    
    12    5    6 1    
    13    6    7 ar   
    14    6   12 ar   
    15    7    8 ar   
    16    8    9 ar   
    17    8   15 1    
    18    9   10 ar   
    19    9   36 1    
    20   10   11 1    
    21   10   12 ar   
    22   11   37 1    
    23   11   38 1    
    24   12   13 1    
    25   13   14 3    
    26   15   16 am   BACKBONE|DICT|INTERRES
    27   15   39 1    
    28   16   17 2    
    29   16   18 1    
    30   18   19 1    
    31   18   40 1    
    32   18   41 1    
    33   19   20 ar   
    34   19   26 ar   
    35   20   21 1    
    36   20   23 ar   
    37   21   22 1    
    38   22   42 1    
    39   22   43 1    
    40   22   44 1    
    41   23   24 ar   
    42   23   45 1    
    43   24   25 ar   
    44   24   46 1    
    45   25   26 ar   
    46   25   27 1    
    47   26   47 1    
    48   27   28 1    
    49   28   48 1    
    50   28   49 1    
    51   28   50 1    
@<TRIPOS>SUBSTRUCTURE
     1 SUB         1 GROUP             0       ****    0 ROOT    
