18659-1
     RDKit          3D

 50 51  0  0  1  0  0  0  0  0999 V2000
    5.5876   -3.2284   -9.7977 C   0  0  0  0  0  0  0  0  0  0  0  0
    5.9421   -4.4499   -9.1578 O   0  0  0  0  0  0  0  0  0  0  0  0
    7.0481   -4.3431   -8.2623 C   0  0  0  0  0  0  0  0  0  0  0  0
    6.6650   -3.7183   -6.9145 C   0  0  0  0  0  0  0  0  0  0  0  0
    7.7106   -3.7950   -5.9335 O   0  0  0  0  0  0  0  0  0  0  0  0
    8.1424   -4.9890   -5.3765 C   0  0  0  0  0  0  0  0  0  0  0  0
    7.6275   -6.1366   -5.8815 N   0  0  0  0  0  0  0  0  0  0  0  0
    7.9790   -7.3018   -5.3328 C   0  0  0  0  0  0  0  0  0  0  0  0
    8.8808   -7.4043   -4.2843 C   0  0  0  0  0  0  0  0  0  0  0  0
    9.4150   -6.2354   -3.7673 C   0  0  0  0  0  0  0  0  0  0  0  0
   10.2865   -6.3957   -2.6964 N   0  0  0  0  0  0  0  0  0  0  0  0
    9.0529   -4.9909   -4.3126 C   0  0  0  0  0  0  0  0  0  0  0  0
    9.5662   -3.7231   -3.8063 C   0  0  0  0  0  0  0  0  0  0  0  0
    9.9701   -2.7125   -3.4104 N   0  0  0  0  0  0  0  0  0  0  0  0
    7.3140   -8.3323   -5.9596 N   0  0  0  0  0  0  0  0  0  0  0  0
    7.1109   -9.5885   -5.5651 C   0  0  0  0  0  0  0  0  0  0  0  0
    7.5274  -10.0576   -4.5091 O   0  0  0  0  0  0  0  0  0  0  0  0
    6.2218  -10.4352   -6.4676 C   0  0  0  0  0  0  0  0  0  0  0  0
    6.7377  -10.5667   -7.8978 C   0  0  0  0  0  0  0  0  0  0  0  0
    6.4682   -9.5716   -8.8498 C   0  0  0  0  0  0  0  0  0  0  0  0
    5.7648   -8.4575   -8.4275 O   0  0  0  0  0  0  0  0  0  0  0  0
    5.3781   -7.4652   -9.3759 C   0  0  0  0  0  0  0  0  0  0  0  0
    6.9221   -9.7552  -10.1622 C   0  0  0  0  0  0  0  0  0  0  0  0
    7.6512  -10.8960  -10.5128 C   0  0  0  0  0  0  0  0  0  0  0  0
    7.9280  -11.8896   -9.5649 C   0  0  0  0  0  0  0  0  0  0  0  0
    7.4607  -11.7076   -8.2567 C   0  0  0  0  0  0  0  0  0  0  0  0
    8.6502  -12.9978   -9.9637 O   0  0  0  0  0  0  0  0  0  0  0  0
    8.5881  -14.1940   -9.1914 C   0  0  0  0  0  0  0  0  0  0  0  0
    5.3664   -2.4662   -9.0361 H   0  0  0  0  0  0  0  0  0  0  0  0
    6.4238   -2.8873  -10.4257 H   0  0  0  0  0  0  0  0  0  0  0  0
    4.6987   -3.3880  -10.4257 H   0  0  0  0  0  0  0  0  0  0  0  0
    7.4515   -5.3502   -8.0806 H   0  0  0  0  0  0  0  0  0  0  0  0
    7.7922   -3.6837   -8.7329 H   0  0  0  0  0  0  0  0  0  0  0  0
    6.4178   -2.6591   -7.0787 H   0  0  0  0  0  0  0  0  0  0  0  0
    5.8097   -4.2886   -6.5232 H   0  0  0  0  0  0  0  0  0  0  0  0
    9.1637   -8.3853   -3.8750 H   0  0  0  0  0  0  0  0  0  0  0  0
   10.7229   -5.5712   -2.2597 H   0  0  0  0  0  0  0  0  0  0  0  0
   10.4959   -7.3389   -2.3396 H   0  0  0  0  0  0  0  0  0  0  0  0
    6.9105   -8.0945   -6.8770 H   0  0  0  0  0  0  0  0  0  0  0  0
    6.1465  -11.4428   -6.0327 H   0  0  0  0  0  0  0  0  0  0  0  0
    5.2485   -9.9258   -6.5252 H   0  0  0  0  0  0  0  0  0  0  0  0
    5.0282   -6.5674   -8.8452 H   0  0  0  0  0  0  0  0  0  0  0  0
    6.2407   -7.2053  -10.0070 H   0  0  0  0  0  0  0  0  0  0  0  0
    4.5670   -7.8575  -10.0070 H   0  0  0  0  0  0  0  0  0  0  0  0
    6.7027   -8.9939  -10.9253 H   0  0  0  0  0  0  0  0  0  0  0  0
    8.0116  -11.0145  -11.5453 H   0  0  0  0  0  0  0  0  0  0  0  0
    7.6667  -12.4770   -7.4980 H   0  0  0  0  0  0  0  0  0  0  0  0
    8.6013  -13.9405   -8.1211 H   0  0  0  0  0  0  0  0  0  0  0  0
    7.6606  -14.7358   -9.4285 H   0  0  0  0  0  0  0  0  0  0  0  0
    9.4545  -14.8289   -9.4285 H   0  0  0  0  0  0  0  0  0  0  0  0
  1  2  1  0
  2  3  1  0
  3  4  1  0
  4  5  1  0
  5  6  1  0
  6  7  2  0
  6 12  1  0
  7  8  1  0
  8  9  2  0
  8 15  1  0
  9 10  1  0
 10 11  1  0
 10 12  2  0
 12 13  1  0
 13 14  3  0
 15 16  1  0
 16 17  2  0
 16 18  1  0
 18 19  1  0
 19 20  2  0
 19 26  1  0
 20 21  1  0
 20 23  1  0
 21 22  1  0
 23 24  2  0
 24 25  1  0
 25 26  2  0
 25 27  1  0
 27 28  1  0
  1 29  1  0
  1 30  1  0
  1 31  1  0
  3 32  1  0
  3 33  1  0
  4 34  1  0
  4 35  1  0
  9 36  1  0
 11 37  1  0
 11 38  1  0
 15 39  1  0
 18 40  1  0
 18 41  1  0
 22 42  1  0
 22 43  1  0
 22 44  1  0
 23 45  1  0
 24 46  1  0
 26 47  1  0
 28 48  1  0
 28 49  1  0
 28 50  1  0
M  END
>  <s_m_entry_id>  (1) 
24

>  <s_m_entry_name>  (1) 
jnk1-2.2

>  <s_m_Source_Path>  (1) 
D:\PyChAlPr\WorkflowForMSLD\Protein_and_Ligand_Preparation

>  <s_m_Source_File>  (1) 
jnk1-2.mol2

>  <i_m_Source_File_Index>  (1) 
2

$$$$
18660-1
     RDKit          3D

 52 53  0  0  1  0  0  0  0  0999 V2000
    9.2114   -6.1571   -7.7071 C   0  0  0  0  0  0  0  0  0  0  0  0
    7.4268   -6.1246   -8.0947 S   0  0  0  0  0  6  0  0  0  0  0  0
    7.2474   -6.7682   -9.4044 O   0  0  0  0  0  0  0  0  0  0  0  0
    6.6929   -6.6166   -6.9225 O   0  0  0  0  0  0  0  0  0  0  0  0
    7.0481   -4.3431   -8.2623 C   0  0  0  0  0  0  0  0  0  0  0  0
    6.6650   -3.7183   -6.9145 C   0  0  0  0  0  0  0  0  0  0  0  0
    7.7106   -3.7950   -5.9335 O   0  0  0  0  0  0  0  0  0  0  0  0
    8.1424   -4.9890   -5.3765 C   0  0  0  0  0  0  0  0  0  0  0  0
    7.6275   -6.1366   -5.8815 N   0  0  0  0  0  0  0  0  0  0  0  0
    7.9790   -7.3018   -5.3328 C   0  0  0  0  0  0  0  0  0  0  0  0
    8.8808   -7.4043   -4.2843 C   0  0  0  0  0  0  0  0  0  0  0  0
    9.4150   -6.2354   -3.7673 C   0  0  0  0  0  0  0  0  0  0  0  0
   10.2865   -6.3957   -2.6964 N   0  0  0  0  0  0  0  0  0  0  0  0
    9.0529   -4.9909   -4.3126 C   0  0  0  0  0  0  0  0  0  0  0  0
    9.5662   -3.7231   -3.8063 C   0  0  0  0  0  0  0  0  0  0  0  0
    9.9701   -2.7125   -3.4104 N   0  0  0  0  0  0  0  0  0  0  0  0
    7.3140   -8.3323   -5.9596 N   0  0  0  0  0  0  0  0  0  0  0  0
    7.1109   -9.5885   -5.5651 C   0  0  0  0  0  0  0  0  0  0  0  0
    7.5274  -10.0576   -4.5091 O   0  0  0  0  0  0  0  0  0  0  0  0
    6.2218  -10.4352   -6.4676 C   0  0  0  0  0  0  0  0  0  0  0  0
    6.7377  -10.5667   -7.8978 C   0  0  0  0  0  0  0  0  0  0  0  0
    6.4682   -9.5716   -8.8498 C   0  0  0  0  0  0  0  0  0  0  0  0
    5.7648   -8.4575   -8.4275 O   0  0  0  0  0  0  0  0  0  0  0  0
    5.3781   -7.4652   -9.3759 C   0  0  0  0  0  0  0  0  0  0  0  0
    6.9221   -9.7552  -10.1622 C   0  0  0  0  0  0  0  0  0  0  0  0
    7.6512  -10.8960  -10.5128 C   0  0  0  0  0  0  0  0  0  0  0  0
    7.9280  -11.8896   -9.5649 C   0  0  0  0  0  0  0  0  0  0  0  0
    7.4607  -11.7076   -8.2567 C   0  0  0  0  0  0  0  0  0  0  0  0
    8.6502  -12.9978   -9.9637 O   0  0  0  0  0  0  0  0  0  0  0  0
    8.5881  -14.1940   -9.1914 C   0  0  0  0  0  0  0  0  0  0  0  0
    9.3496   -6.1597   -6.6158 H   0  0  0  0  0  0  0  0  0  0  0  0
    9.6633   -7.0637   -8.1360 H   0  0  0  0  0  0  0  0  0  0  0  0
    9.6961   -5.2677   -8.1360 H   0  0  0  0  0  0  0  0  0  0  0  0
    7.9347   -3.8252   -8.6568 H   0  0  0  0  0  0  0  0  0  0  0  0
    6.1937   -4.2357   -8.9467 H   0  0  0  0  0  0  0  0  0  0  0  0
    6.4178   -2.6591   -7.0787 H   0  0  0  0  0  0  0  0  0  0  0  0
    5.8097   -4.2886   -6.5232 H   0  0  0  0  0  0  0  0  0  0  0  0
    9.1637   -8.3853   -3.8750 H   0  0  0  0  0  0  0  0  0  0  0  0
   10.7229   -5.5712   -2.2597 H   0  0  0  0  0  0  0  0  0  0  0  0
   10.4959   -7.3389   -2.3396 H   0  0  0  0  0  0  0  0  0  0  0  0
    6.9105   -8.0945   -6.8770 H   0  0  0  0  0  0  0  0  0  0  0  0
    6.1465  -11.4428   -6.0327 H   0  0  0  0  0  0  0  0  0  0  0  0
    5.2485   -9.9258   -6.5252 H   0  0  0  0  0  0  0  0  0  0  0  0
    5.0282   -6.5674   -8.8452 H   0  0  0  0  0  0  0  0  0  0  0  0
    6.2407   -7.2053  -10.0070 H   0  0  0  0  0  0  0  0  0  0  0  0
    4.5670   -7.8575  -10.0070 H   0  0  0  0  0  0  0  0  0  0  0  0
    6.7027   -8.9939  -10.9253 H   0  0  0  0  0  0  0  0  0  0  0  0
    8.0116  -11.0145  -11.5453 H   0  0  0  0  0  0  0  0  0  0  0  0
    7.6667  -12.4770   -7.4980 H   0  0  0  0  0  0  0  0  0  0  0  0
    8.6013  -13.9405   -8.1211 H   0  0  0  0  0  0  0  0  0  0  0  0
    7.6606  -14.7358   -9.4285 H   0  0  0  0  0  0  0  0  0  0  0  0
    9.4545  -14.8289   -9.4285 H   0  0  0  0  0  0  0  0  0  0  0  0
  1  2  1  0
  2  3  2  0
  2  4  2  0
  2  5  1  0
  5  6  1  0
  6  7  1  0
  7  8  1  0
  8  9  2  0
  8 14  1  0
  9 10  1  0
 10 11  2  0
 10 17  1  0
 11 12  1  0
 12 13  1  0
 12 14  2  0
 14 15  1  0
 15 16  3  0
 17 18  1  0
 18 19  2  0
 18 20  1  0
 20 21  1  0
 21 22  2  0
 21 28  1  0
 22 23  1  0
 22 25  1  0
 23 24  1  0
 25 26  2  0
 26 27  1  0
 27 28  2  0
 27 29  1  0
 29 30  1  0
  1 31  1  0
  1 32  1  0
  1 33  1  0
  5 34  1  0
  5 35  1  0
  6 36  1  0
  6 37  1  0
 11 38  1  0
 13 39  1  0
 13 40  1  0
 17 41  1  0
 20 42  1  0
 20 43  1  0
 24 44  1  0
 24 45  1  0
 24 46  1  0
 25 47  1  0
 26 48  1  0
 28 49  1  0
 30 50  1  0
 30 51  1  0
 30 52  1  0
M  END
>  <s_m_entry_id>  (2) 
23

>  <s_m_entry_name>  (2) 
jnk1-2.1

>  <s_m_Source_Path>  (2) 
D:\PyChAlPr\WorkflowForMSLD\Protein_and_Ligand_Preparation

>  <s_m_Source_File>  (2) 
jnk1-2.mol2

>  <i_m_Source_File_Index>  (2) 
1

$$$$
18637-1
     RDKit          3D

 53 54  0  0  1  0  0  0  0  0999 V2000
    7.0481   -4.3431   -8.2623 C   0  0  0  0  0  0  0  0  0  0  0  0
    6.6650   -3.7183   -6.9145 C   0  0  0  0  0  0  0  0  0  0  0  0
    7.7106   -3.7950   -5.9335 O   0  0  0  0  0  0  0  0  0  0  0  0
    8.1424   -4.9890   -5.3765 C   0  0  0  0  0  0  0  0  0  0  0  0
    7.6275   -6.1366   -5.8815 N   0  0  0  0  0  0  0  0  0  0  0  0
    7.9790   -7.3018   -5.3328 C   0  0  0  0  0  0  0  0  0  0  0  0
    8.8808   -7.4043   -4.2843 C   0  0  0  0  0  0  0  0  0  0  0  0
    9.4150   -6.2354   -3.7673 C   0  0  0  0  0  0  0  0  0  0  0  0
   10.2865   -6.3957   -2.6964 N   0  0  0  0  0  0  0  0  0  0  0  0
    9.0529   -4.9909   -4.3126 C   0  0  0  0  0  0  0  0  0  0  0  0
    9.5662   -3.7231   -3.8063 C   0  0  0  0  0  0  0  0  0  0  0  0
    9.9701   -2.7125   -3.4104 N   0  0  0  0  0  0  0  0  0  0  0  0
    7.3140   -8.3323   -5.9596 N   0  0  0  0  0  0  0  0  0  0  0  0
    7.1109   -9.5885   -5.5651 C   0  0  0  0  0  0  0  0  0  0  0  0
    7.5274  -10.0576   -4.5091 O   0  0  0  0  0  0  0  0  0  0  0  0
    6.2218  -10.4352   -6.4676 C   0  0  0  0  0  0  0  0  0  0  0  0
    6.7377  -10.5667   -7.8978 C   0  0  0  0  0  0  0  0  0  0  0  0
    6.4682   -9.5716   -8.8498 C   0  0  0  0  0  0  0  0  0  0  0  0
    5.7648   -8.4575   -8.4275 O   0  0  0  0  0  0  0  0  0  0  0  0
    5.3781   -7.4652   -9.3759 C   0  0  0  0  0  0  0  0  0  0  0  0
    6.9221   -9.7552  -10.1622 C   0  0  0  0  0  0  0  0  0  0  0  0
    7.6512  -10.8960  -10.5128 C   0  0  0  0  0  0  0  0  0  0  0  0
    7.9280  -11.8896   -9.5649 C   0  0  0  0  0  0  0  0  0  0  0  0
    7.4607  -11.7076   -8.2567 C   0  0  0  0  0  0  0  0  0  0  0  0
    8.6502  -12.9978   -9.9637 O   0  0  0  0  0  0  0  0  0  0  0  0
    8.5881  -14.1940   -9.1914 C   0  0  0  0  0  0  0  0  0  0  0  0
    8.1715  -11.1275  -11.8073 N   0  0  0  0  0  0  0  0  0  0  0  0
    8.0787  -10.4223  -12.9466 C   0  0  0  0  0  0  0  0  0  0  0  0
    7.4285   -9.3912  -13.0858 O   0  0  0  0  0  0  0  0  0  0  0  0
    8.8677  -10.9493  -14.1324 C   0  0  0  0  0  0  0  0  0  0  0  0
    7.6159   -5.2691   -8.0890 H   0  0  0  0  0  0  0  0  0  0  0  0
    6.1359   -4.5735   -8.8321 H   0  0  0  0  0  0  0  0  0  0  0  0
    7.6672   -3.6346   -8.8321 H   0  0  0  0  0  0  0  0  0  0  0  0
    6.4178   -2.6591   -7.0787 H   0  0  0  0  0  0  0  0  0  0  0  0
    5.8097   -4.2886   -6.5232 H   0  0  0  0  0  0  0  0  0  0  0  0
    9.1637   -8.3853   -3.8750 H   0  0  0  0  0  0  0  0  0  0  0  0
   10.7229   -5.5712   -2.2597 H   0  0  0  0  0  0  0  0  0  0  0  0
   10.4959   -7.3389   -2.3396 H   0  0  0  0  0  0  0  0  0  0  0  0
    6.9105   -8.0945   -6.8770 H   0  0  0  0  0  0  0  0  0  0  0  0
    6.1465  -11.4428   -6.0327 H   0  0  0  0  0  0  0  0  0  0  0  0
    5.2485   -9.9258   -6.5252 H   0  0  0  0  0  0  0  0  0  0  0  0
    5.0282   -6.5674   -8.8452 H   0  0  0  0  0  0  0  0  0  0  0  0
    6.2407   -7.2053  -10.0070 H   0  0  0  0  0  0  0  0  0  0  0  0
    4.5670   -7.8575  -10.0070 H   0  0  0  0  0  0  0  0  0  0  0  0
    6.7027   -8.9939  -10.9253 H   0  0  0  0  0  0  0  0  0  0  0  0
    7.6667  -12.4770   -7.4980 H   0  0  0  0  0  0  0  0  0  0  0  0
    8.6013  -13.9405   -8.1211 H   0  0  0  0  0  0  0  0  0  0  0  0
    7.6606  -14.7358   -9.4285 H   0  0  0  0  0  0  0  0  0  0  0  0
    9.4545  -14.8289   -9.4285 H   0  0  0  0  0  0  0  0  0  0  0  0
    8.7214  -11.9943  -11.8918 H   0  0  0  0  0  0  0  0  0  0  0  0
    9.7316  -11.5263  -13.7707 H   0  0  0  0  0  0  0  0  0  0  0  0
    8.2227  -11.5985  -14.7426 H   0  0  0  0  0  0  0  0  0  0  0  0
    9.2204  -10.1048  -14.7426 H   0  0  0  0  0  0  0  0  0  0  0  0
  1  2  1  0
  2  3  1  0
  3  4  1  0
  4  5  2  0
  4 10  1  0
  5  6  1  0
  6  7  2  0
  6 13  1  0
  7  8  1  0
  8  9  1  0
  8 10  2  0
 10 11  1  0
 11 12  3  0
 13 14  1  0
 14 15  2  0
 14 16  1  0
 16 17  1  0
 17 18  2  0
 17 24  1  0
 18 19  1  0
 18 21  1  0
 19 20  1  0
 21 22  2  0
 22 23  1  0
 22 27  1  0
 23 24  2  0
 23 25  1  0
 25 26  1  0
 27 28  1  0
 28 29  2  0
 28 30  1  0
  1 31  1  0
  1 32  1  0
  1 33  1  0
  2 34  1  0
  2 35  1  0
  7 36  1  0
  9 37  1  0
  9 38  1  0
 13 39  1  0
 16 40  1  0
 16 41  1  0
 20 42  1  0
 20 43  1  0
 20 44  1  0
 21 45  1  0
 24 46  1  0
 26 47  1  0
 26 48  1  0
 26 49  1  0
 27 50  1  0
 30 51  1  0
 30 52  1  0
 30 53  1  0
M  END
>  <s_m_entry_id>  (3) 
25

>  <s_m_entry_name>  (3) 
jnk1-2.3

>  <s_m_Source_Path>  (3) 
D:\PyChAlPr\WorkflowForMSLD\Protein_and_Ligand_Preparation

>  <s_m_Source_File>  (3) 
jnk1-2.mol2

>  <i_m_Source_File_Index>  (3) 
3

$$$$
18638-1
     RDKit          3D

 52 53  0  0  1  0  0  0  0  0999 V2000
    7.0481   -4.3431   -8.2623 C   0  0  0  0  0  0  0  0  0  0  0  0
    6.6650   -3.7183   -6.9145 C   0  0  0  0  0  0  0  0  0  0  0  0
    7.7106   -3.7950   -5.9335 O   0  0  0  0  0  0  0  0  0  0  0  0
    8.1424   -4.9890   -5.3765 C   0  0  0  0  0  0  0  0  0  0  0  0
    7.6275   -6.1366   -5.8815 N   0  0  0  0  0  0  0  0  0  0  0  0
    7.9790   -7.3018   -5.3328 C   0  0  0  0  0  0  0  0  0  0  0  0
    8.8808   -7.4043   -4.2843 C   0  0  0  0  0  0  0  0  0  0  0  0
    9.4150   -6.2354   -3.7673 C   0  0  0  0  0  0  0  0  0  0  0  0
   10.2865   -6.3957   -2.6964 N   0  0  0  0  0  0  0  0  0  0  0  0
    9.0529   -4.9909   -4.3126 C   0  0  0  0  0  0  0  0  0  0  0  0
    9.5662   -3.7231   -3.8063 C   0  0  0  0  0  0  0  0  0  0  0  0
    9.9701   -2.7125   -3.4104 N   0  0  0  0  0  0  0  0  0  0  0  0
    7.3140   -8.3323   -5.9596 N   0  0  0  0  0  0  0  0  0  0  0  0
    7.1109   -9.5885   -5.5651 C   0  0  0  0  0  0  0  0  0  0  0  0
    7.5274  -10.0576   -4.5091 O   0  0  0  0  0  0  0  0  0  0  0  0
    6.2218  -10.4352   -6.4676 C   0  0  0  0  0  0  0  0  0  0  0  0
    6.7377  -10.5667   -7.8978 C   0  0  0  0  0  0  0  0  0  0  0  0
    6.4682   -9.5716   -8.8498 C   0  0  0  0  0  0  0  0  0  0  0  0
    5.7648   -8.4575   -8.4275 O   0  0  0  0  0  0  0  0  0  0  0  0
    5.3781   -7.4652   -9.3759 C   0  0  0  0  0  0  0  0  0  0  0  0
    6.9221   -9.7552  -10.1622 C   0  0  0  0  0  0  0  0  0  0  0  0
    7.6512  -10.8960  -10.5128 C   0  0  0  0  0  0  0  0  0  0  0  0
    8.1877  -11.0953  -12.2172 S   0  0  0  0  0  6  0  0  0  0  0  0
    7.8420   -9.8755  -12.9654 O   0  0  0  0  0  0  0  0  0  0  0  0
    9.5796  -11.5735  -12.2258 O   0  0  0  0  0  0  0  0  0  0  0  0
    7.1224  -12.4508  -12.8539 C   0  0  0  0  0  0  0  0  0  0  0  0
    7.9280  -11.8896   -9.5649 C   0  0  0  0  0  0  0  0  0  0  0  0
    7.4607  -11.7076   -8.2567 C   0  0  0  0  0  0  0  0  0  0  0  0
    8.6502  -12.9978   -9.9637 O   0  0  0  0  0  0  0  0  0  0  0  0
    8.5881  -14.1940   -9.1914 C   0  0  0  0  0  0  0  0  0  0  0  0
    7.6159   -5.2691   -8.0890 H   0  0  0  0  0  0  0  0  0  0  0  0
    6.1359   -4.5735   -8.8321 H   0  0  0  0  0  0  0  0  0  0  0  0
    7.6672   -3.6346   -8.8321 H   0  0  0  0  0  0  0  0  0  0  0  0
    6.4178   -2.6591   -7.0787 H   0  0  0  0  0  0  0  0  0  0  0  0
    5.8097   -4.2886   -6.5232 H   0  0  0  0  0  0  0  0  0  0  0  0
    9.1637   -8.3853   -3.8750 H   0  0  0  0  0  0  0  0  0  0  0  0
   10.7229   -5.5712   -2.2597 H   0  0  0  0  0  0  0  0  0  0  0  0
   10.4959   -7.3389   -2.3396 H   0  0  0  0  0  0  0  0  0  0  0  0
    6.9105   -8.0945   -6.8770 H   0  0  0  0  0  0  0  0  0  0  0  0
    6.1465  -11.4428   -6.0327 H   0  0  0  0  0  0  0  0  0  0  0  0
    5.2485   -9.9258   -6.5252 H   0  0  0  0  0  0  0  0  0  0  0  0
    5.0282   -6.5674   -8.8452 H   0  0  0  0  0  0  0  0  0  0  0  0
    6.2407   -7.2053  -10.0070 H   0  0  0  0  0  0  0  0  0  0  0  0
    4.5670   -7.8575  -10.0070 H   0  0  0  0  0  0  0  0  0  0  0  0
    6.7027   -8.9939  -10.9253 H   0  0  0  0  0  0  0  0  0  0  0  0
    6.6879  -13.0037  -12.0080 H   0  0  0  0  0  0  0  0  0  0  0  0
    6.3147  -12.0250  -13.4673 H   0  0  0  0  0  0  0  0  0  0  0  0
    7.7270  -13.1349  -13.4673 H   0  0  0  0  0  0  0  0  0  0  0  0
    7.6667  -12.4770   -7.4980 H   0  0  0  0  0  0  0  0  0  0  0  0
    8.6013  -13.9405   -8.1211 H   0  0  0  0  0  0  0  0  0  0  0  0
    7.6606  -14.7358   -9.4285 H   0  0  0  0  0  0  0  0  0  0  0  0
    9.4545  -14.8289   -9.4285 H   0  0  0  0  0  0  0  0  0  0  0  0
  1  2  1  0
  2  3  1  0
  3  4  1  0
  4  5  2  0
  4 10  1  0
  5  6  1  0
  6  7  2  0
  6 13  1  0
  7  8  1  0
  8  9  1  0
  8 10  2  0
 10 11  1  0
 11 12  3  0
 13 14  1  0
 14 15  2  0
 14 16  1  0
 16 17  1  0
 17 18  2  0
 17 28  1  0
 18 19  1  0
 18 21  1  0
 19 20  1  0
 21 22  2  0
 22 23  1  0
 22 27  1  0
 23 24  2  0
 23 25  2  0
 23 26  1  0
 27 28  2  0
 27 29  1  0
 29 30  1  0
  1 31  1  0
  1 32  1  0
  1 33  1  0
  2 34  1  0
  2 35  1  0
  7 36  1  0
  9 37  1  0
  9 38  1  0
 13 39  1  0
 16 40  1  0
 16 41  1  0
 20 42  1  0
 20 43  1  0
 20 44  1  0
 21 45  1  0
 26 46  1  0
 26 47  1  0
 26 48  1  0
 28 49  1  0
 30 50  1  0
 30 51  1  0
 30 52  1  0
M  END
>  <s_m_entry_id>  (4) 
26

>  <s_m_entry_name>  (4) 
jnk1-2.4

>  <s_m_Source_Path>  (4) 
D:\PyChAlPr\WorkflowForMSLD\Protein_and_Ligand_Preparation

>  <s_m_Source_File>  (4) 
jnk1-2.mol2

>  <i_m_Source_File_Index>  (4) 
4

$$$$
18652-1
     RDKit          3D

 55 56  0  0  1  0  0  0  0  0999 V2000
    7.0481   -4.3431   -8.2623 C   0  0  0  0  0  0  0  0  0  0  0  0
    6.6650   -3.7183   -6.9145 C   0  0  0  0  0  0  0  0  0  0  0  0
    5.2961   -4.1926   -6.4059 C   0  0  0  0  0  0  0  0  0  0  0  0
    7.7106   -3.7950   -5.9335 O   0  0  0  0  0  0  0  0  0  0  0  0
    8.1424   -4.9890   -5.3765 C   0  0  0  0  0  0  0  0  0  0  0  0
    7.6275   -6.1366   -5.8815 N   0  0  0  0  0  0  0  0  0  0  0  0
    7.9790   -7.3018   -5.3328 C   0  0  0  0  0  0  0  0  0  0  0  0
    8.8808   -7.4043   -4.2843 C   0  0  0  0  0  0  0  0  0  0  0  0
    9.4150   -6.2354   -3.7673 C   0  0  0  0  0  0  0  0  0  0  0  0
   10.2865   -6.3957   -2.6964 N   0  0  0  0  0  0  0  0  0  0  0  0
    9.0529   -4.9909   -4.3126 C   0  0  0  0  0  0  0  0  0  0  0  0
    9.5662   -3.7231   -3.8063 C   0  0  0  0  0  0  0  0  0  0  0  0
    9.9701   -2.7125   -3.4104 N   0  0  0  0  0  0  0  0  0  0  0  0
    7.3140   -8.3323   -5.9596 N   0  0  0  0  0  0  0  0  0  0  0  0
    7.1109   -9.5885   -5.5651 C   0  0  0  0  0  0  0  0  0  0  0  0
    7.5274  -10.0576   -4.5091 O   0  0  0  0  0  0  0  0  0  0  0  0
    6.2218  -10.4352   -6.4676 C   0  0  0  0  0  0  0  0  0  0  0  0
    6.7377  -10.5667   -7.8978 C   0  0  0  0  0  0  0  0  0  0  0  0
    6.4682   -9.5716   -8.8498 C   0  0  0  0  0  0  0  0  0  0  0  0
    5.7648   -8.4575   -8.4275 O   0  0  0  0  0  0  0  0  0  0  0  0
    5.3781   -7.4652   -9.3759 C   0  0  0  0  0  0  0  0  0  0  0  0
    6.9221   -9.7552  -10.1622 C   0  0  0  0  0  0  0  0  0  0  0  0
    7.6512  -10.8960  -10.5128 C   0  0  0  0  0  0  0  0  0  0  0  0
    8.1936  -11.0935  -12.2154 S   0  0  0  0  0  6  0  0  0  0  0  0
    9.5920  -11.5521  -12.2180 O   0  0  0  0  0  0  0  0  0  0  0  0
    7.8333   -9.8807  -12.9682 O   0  0  0  0  0  0  0  0  0  0  0  0
    7.1485  -12.4647  -12.8524 C   0  0  0  0  0  0  0  0  0  0  0  0
    7.9280  -11.8896   -9.5649 C   0  0  0  0  0  0  0  0  0  0  0  0
    7.4607  -11.7076   -8.2567 C   0  0  0  0  0  0  0  0  0  0  0  0
    8.6502  -12.9978   -9.9637 O   0  0  0  0  0  0  0  0  0  0  0  0
    8.5881  -14.1940   -9.1914 C   0  0  0  0  0  0  0  0  0  0  0  0
    7.6159   -5.2691   -8.0890 H   0  0  0  0  0  0  0  0  0  0  0  0
    6.1359   -4.5735   -8.8321 H   0  0  0  0  0  0  0  0  0  0  0  0
    7.6672   -3.6346   -8.8321 H   0  0  0  0  0  0  0  0  0  0  0  0
    6.5441   -2.6416   -7.1047 H   0  0  0  0  0  0  0  0  0  0  0  0
    5.2938   -4.1934   -5.3059 H   0  0  0  0  0  0  0  0  0  0  0  0
    4.5129   -3.5135   -6.7737 H   0  0  0  0  0  0  0  0  0  0  0  0
    5.1009   -5.2107   -6.7737 H   0  0  0  0  0  0  0  0  0  0  0  0
    9.1637   -8.3853   -3.8750 H   0  0  0  0  0  0  0  0  0  0  0  0
   10.7229   -5.5712   -2.2597 H   0  0  0  0  0  0  0  0  0  0  0  0
   10.4959   -7.3389   -2.3396 H   0  0  0  0  0  0  0  0  0  0  0  0
    6.9105   -8.0945   -6.8770 H   0  0  0  0  0  0  0  0  0  0  0  0
    6.1465  -11.4428   -6.0327 H   0  0  0  0  0  0  0  0  0  0  0  0
    5.2485   -9.9258   -6.5252 H   0  0  0  0  0  0  0  0  0  0  0  0
    5.0282   -6.5674   -8.8452 H   0  0  0  0  0  0  0  0  0  0  0  0
    6.2407   -7.2053  -10.0070 H   0  0  0  0  0  0  0  0  0  0  0  0
    4.5670   -7.8575  -10.0070 H   0  0  0  0  0  0  0  0  0  0  0  0
    6.7027   -8.9939  -10.9253 H   0  0  0  0  0  0  0  0  0  0  0  0
    6.7221  -13.0241  -12.0067 H   0  0  0  0  0  0  0  0  0  0  0  0
    6.3346  -12.0509  -13.4659 H   0  0  0  0  0  0  0  0  0  0  0  0
    7.7633  -13.1398  -13.4659 H   0  0  0  0  0  0  0  0  0  0  0  0
    7.6667  -12.4770   -7.4980 H   0  0  0  0  0  0  0  0  0  0  0  0
    8.6013  -13.9405   -8.1211 H   0  0  0  0  0  0  0  0  0  0  0  0
    7.6606  -14.7358   -9.4285 H   0  0  0  0  0  0  0  0  0  0  0  0
    9.4545  -14.8289   -9.4285 H   0  0  0  0  0  0  0  0  0  0  0  0
  1  2  1  0
  2  3  1  0
  2  4  1  0
  4  5  1  0
  5  6  2  0
  5 11  1  0
  6  7  1  0
  7  8  2  0
  7 14  1  0
  8  9  1  0
  9 10  1  0
  9 11  2  0
 11 12  1  0
 12 13  3  0
 14 15  1  0
 15 16  2  0
 15 17  1  0
 17 18  1  0
 18 19  2  0
 18 29  1  0
 19 20  1  0
 19 22  1  0
 20 21  1  0
 22 23  2  0
 23 24  1  0
 23 28  1  0
 24 25  2  0
 24 26  2  0
 24 27  1  0
 28 29  2  0
 28 30  1  0
 30 31  1  0
  1 32  1  0
  1 33  1  0
  1 34  1  0
  2 35  1  0
  3 36  1  0
  3 37  1  0
  3 38  1  0
  8 39  1  0
 10 40  1  0
 10 41  1  0
 14 42  1  0
 17 43  1  0
 17 44  1  0
 21 45  1  0
 21 46  1  0
 21 47  1  0
 22 48  1  0
 27 49  1  0
 27 50  1  0
 27 51  1  0
 29 52  1  0
 31 53  1  0
 31 54  1  0
 31 55  1  0
M  END
>  <s_m_entry_id>  (5) 
27

>  <s_m_entry_name>  (5) 
jnk1-2.5

>  <s_m_Source_Path>  (5) 
D:\PyChAlPr\WorkflowForMSLD\Protein_and_Ligand_Preparation

>  <s_m_Source_File>  (5) 
jnk1-2.mol2

>  <i_m_Source_File_Index>  (5) 
5

$$$$
18658-1
     RDKit          3D

 47 48  0  0  1  0  0  0  0  0999 V2000
    6.0319   -4.1411   -9.2322 O   0  0  0  0  0  0  0  0  0  0  0  0
    7.0481   -4.3431   -8.2623 C   0  0  0  0  0  0  0  0  0  0  0  0
    6.6650   -3.7183   -6.9145 C   0  0  0  0  0  0  0  0  0  0  0  0
    7.7106   -3.7950   -5.9335 O   0  0  0  0  0  0  0  0  0  0  0  0
    8.1424   -4.9890   -5.3765 C   0  0  0  0  0  0  0  0  0  0  0  0
    7.6275   -6.1366   -5.8815 N   0  0  0  0  0  0  0  0  0  0  0  0
    7.9790   -7.3018   -5.3328 C   0  0  0  0  0  0  0  0  0  0  0  0
    8.8808   -7.4043   -4.2843 C   0  0  0  0  0  0  0  0  0  0  0  0
    9.4150   -6.2354   -3.7673 C   0  0  0  0  0  0  0  0  0  0  0  0
   10.2865   -6.3957   -2.6964 N   0  0  0  0  0  0  0  0  0  0  0  0
    9.0529   -4.9909   -4.3126 C   0  0  0  0  0  0  0  0  0  0  0  0
    9.5662   -3.7231   -3.8063 C   0  0  0  0  0  0  0  0  0  0  0  0
    9.9701   -2.7125   -3.4104 N   0  0  0  0  0  0  0  0  0  0  0  0
    7.3140   -8.3323   -5.9596 N   0  0  0  0  0  0  0  0  0  0  0  0
    7.1109   -9.5885   -5.5651 C   0  0  0  0  0  0  0  0  0  0  0  0
    7.5274  -10.0576   -4.5091 O   0  0  0  0  0  0  0  0  0  0  0  0
    6.2218  -10.4352   -6.4676 C   0  0  0  0  0  0  0  0  0  0  0  0
    6.7377  -10.5667   -7.8978 C   0  0  0  0  0  0  0  0  0  0  0  0
    6.4682   -9.5716   -8.8498 C   0  0  0  0  0  0  0  0  0  0  0  0
    5.7648   -8.4575   -8.4275 O   0  0  0  0  0  0  0  0  0  0  0  0
    5.3781   -7.4652   -9.3759 C   0  0  0  0  0  0  0  0  0  0  0  0
    6.9221   -9.7552  -10.1622 C   0  0  0  0  0  0  0  0  0  0  0  0
    7.6512  -10.8960  -10.5128 C   0  0  0  0  0  0  0  0  0  0  0  0
    7.9280  -11.8896   -9.5649 C   0  0  0  0  0  0  0  0  0  0  0  0
    7.4607  -11.7076   -8.2567 C   0  0  0  0  0  0  0  0  0  0  0  0
    8.6502  -12.9978   -9.9637 O   0  0  0  0  0  0  0  0  0  0  0  0
    8.5881  -14.1940   -9.1914 C   0  0  0  0  0  0  0  0  0  0  0  0
    5.1700   -3.9697   -8.7764 H   0  0  0  0  0  0  0  0  0  0  0  0
    7.2028   -5.4235   -8.1253 H   0  0  0  0  0  0  0  0  0  0  0  0
    7.9696   -3.8600   -8.6193 H   0  0  0  0  0  0  0  0  0  0  0  0
    6.4178   -2.6591   -7.0787 H   0  0  0  0  0  0  0  0  0  0  0  0
    5.8097   -4.2886   -6.5232 H   0  0  0  0  0  0  0  0  0  0  0  0
    9.1637   -8.3853   -3.8750 H   0  0  0  0  0  0  0  0  0  0  0  0
   10.7229   -5.5712   -2.2597 H   0  0  0  0  0  0  0  0  0  0  0  0
   10.4959   -7.3389   -2.3396 H   0  0  0  0  0  0  0  0  0  0  0  0
    6.9105   -8.0945   -6.8770 H   0  0  0  0  0  0  0  0  0  0  0  0
    6.1465  -11.4428   -6.0327 H   0  0  0  0  0  0  0  0  0  0  0  0
    5.2485   -9.9258   -6.5252 H   0  0  0  0  0  0  0  0  0  0  0  0
    5.0282   -6.5674   -8.8452 H   0  0  0  0  0  0  0  0  0  0  0  0
    6.2407   -7.2053  -10.0070 H   0  0  0  0  0  0  0  0  0  0  0  0
    4.5670   -7.8575  -10.0070 H   0  0  0  0  0  0  0  0  0  0  0  0
    6.7027   -8.9939  -10.9253 H   0  0  0  0  0  0  0  0  0  0  0  0
    8.0116  -11.0145  -11.5453 H   0  0  0  0  0  0  0  0  0  0  0  0
    7.6667  -12.4770   -7.4980 H   0  0  0  0  0  0  0  0  0  0  0  0
    8.6013  -13.9405   -8.1211 H   0  0  0  0  0  0  0  0  0  0  0  0
    7.6606  -14.7358   -9.4285 H   0  0  0  0  0  0  0  0  0  0  0  0
    9.4545  -14.8289   -9.4285 H   0  0  0  0  0  0  0  0  0  0  0  0
  1  2  1  0
  2  3  1  0
  3  4  1  0
  4  5  1  0
  5  6  2  0
  5 11  1  0
  6  7  1  0
  7  8  2  0
  7 14  1  0
  8  9  1  0
  9 10  1  0
  9 11  2  0
 11 12  1  0
 12 13  3  0
 14 15  1  0
 15 16  2  0
 15 17  1  0
 17 18  1  0
 18 19  2  0
 18 25  1  0
 19 20  1  0
 19 22  1  0
 20 21  1  0
 22 23  2  0
 23 24  1  0
 24 25  2  0
 24 26  1  0
 26 27  1  0
  1 28  1  0
  2 29  1  0
  2 30  1  0
  3 31  1  0
  3 32  1  0
  8 33  1  0
 10 34  1  0
 10 35  1  0
 14 36  1  0
 17 37  1  0
 17 38  1  0
 21 39  1  0
 21 40  1  0
 21 41  1  0
 22 42  1  0
 23 43  1  0
 25 44  1  0
 27 45  1  0
 27 46  1  0
 27 47  1  0
M  END
>  <s_m_entry_id>  (6) 
28

>  <s_m_entry_name>  (6) 
jnk1-2.6

>  <s_m_Source_Path>  (6) 
D:\PyChAlPr\WorkflowForMSLD\Protein_and_Ligand_Preparation

>  <s_m_Source_File>  (6) 
jnk1-2.mol2

>  <i_m_Source_File_Index>  (6) 
6

$$$$
18639-1
     RDKit          3D

 49 50  0  0  1  0  0  0  0  0999 V2000
    7.0481   -4.3431   -8.2623 C   0  0  0  0  0  0  0  0  0  0  0  0
    6.6650   -3.7183   -6.9145 C   0  0  0  0  0  0  0  0  0  0  0  0
    7.7106   -3.7950   -5.9335 O   0  0  0  0  0  0  0  0  0  0  0  0
    8.1424   -4.9890   -5.3765 C   0  0  0  0  0  0  0  0  0  0  0  0
    7.6275   -6.1366   -5.8815 N   0  0  0  0  0  0  0  0  0  0  0  0
    7.9790   -7.3018   -5.3328 C   0  0  0  0  0  0  0  0  0  0  0  0
    8.8808   -7.4043   -4.2843 C   0  0  0  0  0  0  0  0  0  0  0  0
    9.4150   -6.2354   -3.7673 C   0  0  0  0  0  0  0  0  0  0  0  0
   10.2865   -6.3957   -2.6964 N   0  0  0  0  0  0  0  0  0  0  0  0
    9.0529   -4.9909   -4.3126 C   0  0  0  0  0  0  0  0  0  0  0  0
    9.5662   -3.7231   -3.8063 C   0  0  0  0  0  0  0  0  0  0  0  0
    9.9701   -2.7125   -3.4104 N   0  0  0  0  0  0  0  0  0  0  0  0
    7.3140   -8.3323   -5.9596 N   0  0  0  0  0  0  0  0  0  0  0  0
    7.1109   -9.5885   -5.5651 C   0  0  0  0  0  0  0  0  0  0  0  0
    7.5274  -10.0576   -4.5091 O   0  0  0  0  0  0  0  0  0  0  0  0
    6.2218  -10.4352   -6.4676 C   0  0  0  0  0  0  0  0  0  0  0  0
    6.7377  -10.5667   -7.8978 C   0  0  0  0  0  0  0  0  0  0  0  0
    6.4682   -9.5716   -8.8498 C   0  0  0  0  0  0  0  0  0  0  0  0
    5.7648   -8.4575   -8.4275 O   0  0  0  0  0  0  0  0  0  0  0  0
    5.3781   -7.4652   -9.3759 C   0  0  0  0  0  0  0  0  0  0  0  0
    6.9221   -9.7552  -10.1622 C   0  0  0  0  0  0  0  0  0  0  0  0
    7.6512  -10.8960  -10.5128 C   0  0  0  0  0  0  0  0  0  0  0  0
    8.1476  -11.0324  -11.9089 N   0  0  0  0  0  4  0  0  0  0  0  0
    9.0721  -11.8012  -12.1538 O   0  0  0  0  0  0  0  0  0  0  0  0
    7.6279  -10.3395  -12.7798 O   0  0  0  0  0  0  0  0  0  0  0  0
    7.9280  -11.8896   -9.5649 C   0  0  0  0  0  0  0  0  0  0  0  0
    7.4607  -11.7076   -8.2567 C   0  0  0  0  0  0  0  0  0  0  0  0
    8.6502  -12.9978   -9.9637 O   0  0  0  0  0  0  0  0  0  0  0  0
    8.5881  -14.1940   -9.1914 C   0  0  0  0  0  0  0  0  0  0  0  0
    7.6159   -5.2691   -8.0890 H   0  0  0  0  0  0  0  0  0  0  0  0
    6.1359   -4.5735   -8.8321 H   0  0  0  0  0  0  0  0  0  0  0  0
    7.6672   -3.6346   -8.8321 H   0  0  0  0  0  0  0  0  0  0  0  0
    6.4178   -2.6591   -7.0787 H   0  0  0  0  0  0  0  0  0  0  0  0
    5.8097   -4.2886   -6.5232 H   0  0  0  0  0  0  0  0  0  0  0  0
    9.1637   -8.3853   -3.8750 H   0  0  0  0  0  0  0  0  0  0  0  0
   10.7229   -5.5712   -2.2597 H   0  0  0  0  0  0  0  0  0  0  0  0
   10.4959   -7.3389   -2.3396 H   0  0  0  0  0  0  0  0  0  0  0  0
    6.9105   -8.0945   -6.8770 H   0  0  0  0  0  0  0  0  0  0  0  0
    6.1465  -11.4428   -6.0327 H   0  0  0  0  0  0  0  0  0  0  0  0
    5.2485   -9.9258   -6.5252 H   0  0  0  0  0  0  0  0  0  0  0  0
    5.0282   -6.5674   -8.8452 H   0  0  0  0  0  0  0  0  0  0  0  0
    6.2407   -7.2053  -10.0070 H   0  0  0  0  0  0  0  0  0  0  0  0
    4.5670   -7.8575  -10.0070 H   0  0  0  0  0  0  0  0  0  0  0  0
    6.7027   -8.9939  -10.9253 H   0  0  0  0  0  0  0  0  0  0  0  0
    9.4054  -11.8950  -13.0812 H   0  0  0  0  0  0  0  0  0  0  0  0
    7.6667  -12.4770   -7.4980 H   0  0  0  0  0  0  0  0  0  0  0  0
    8.6013  -13.9405   -8.1211 H   0  0  0  0  0  0  0  0  0  0  0  0
    7.6606  -14.7358   -9.4285 H   0  0  0  0  0  0  0  0  0  0  0  0
    9.4545  -14.8289   -9.4285 H   0  0  0  0  0  0  0  0  0  0  0  0
  1  2  1  0
  2  3  1  0
  3  4  1  0
  4  5  2  0
  4 10  1  0
  5  6  1  0
  6  7  2  0
  6 13  1  0
  7  8  1  0
  8  9  1  0
  8 10  2  0
 10 11  1  0
 11 12  3  0
 13 14  1  0
 14 15  2  0
 14 16  1  0
 16 17  1  0
 17 18  2  0
 17 27  1  0
 18 19  1  0
 18 21  1  0
 19 20  1  0
 21 22  2  0
 22 23  1  0
 22 26  1  0
 23 24  1  0
 23 25  2  0
 26 27  2  0
 26 28  1  0
 28 29  1  0
  1 30  1  0
  1 31  1  0
  1 32  1  0
  2 33  1  0
  2 34  1  0
  7 35  1  0
  9 36  1  0
  9 37  1  0
 13 38  1  0
 16 39  1  0
 16 40  1  0
 20 41  1  0
 20 42  1  0
 20 43  1  0
 21 44  1  0
 24 45  1  0
 27 46  1  0
 29 47  1  0
 29 48  1  0
 29 49  1  0
M  CHG  1  23   1
M  END
>  <s_m_entry_id>  (7) 
29

>  <s_m_entry_name>  (7) 
jnk1-2.7

>  <s_m_Source_Path>  (7) 
D:\PyChAlPr\WorkflowForMSLD\Protein_and_Ligand_Preparation

>  <s_m_Source_File>  (7) 
jnk1-2.mol2

>  <i_m_Source_File_Index>  (7) 
7

$$$$
