18659-1
                    3D
 Schrodinger Suite 2021-2.
 50 51  0  0  1  0            999 V2000
    4.6760   -2.4848   -8.8817 C   0  0  0  0  0  0
    6.0914   -2.3571   -8.9695 O   0  0  0  0  0  0
    6.7659   -2.4340   -7.7143 C   0  0  0  0  0  0
    6.9024   -3.8776   -7.1965 C   0  0  0  0  0  0
    7.7682   -3.8649   -6.0608 O   0  0  0  0  0  0
    8.1425   -5.0542   -5.4608 C   0  0  0  0  0  0
    7.6130   -6.2035   -5.9612 N   0  0  0  0  0  0
    7.9439   -7.3645   -5.3725 C   0  0  0  0  0  0
    8.8316   -7.4477   -4.3079 C   0  0  0  0  0  0
    9.3644   -6.2767   -3.7996 C   0  0  0  0  0  0
   10.2169   -6.4235   -2.7118 N   0  0  0  0  0  0
    9.0185   -5.0419   -4.3705 C   0  0  0  0  0  0
    9.5141   -3.7652   -3.8701 C   0  0  0  0  0  0
    9.8997   -2.7458   -3.4809 N   0  0  0  0  0  0
    7.2840   -8.4261   -5.9612 N   0  0  0  0  0  0
    7.1337   -9.6890   -5.5490 C   0  0  0  0  0  0
    7.5923  -10.1436   -4.5025 O   0  0  0  0  0  0
    6.2581  -10.5767   -6.4260 C   0  0  0  0  0  0
    6.7693  -10.7136   -7.8572 C   0  0  0  0  0  0
    6.4807   -9.7282   -8.8149 C   0  0  0  0  0  0
    5.7560   -8.6253   -8.3976 O   0  0  0  0  0  0
    5.5992   -7.5136   -9.2770 C   0  0  0  0  0  0
    6.9405   -9.9097  -10.1264 C   0  0  0  0  0  0
    7.7080  -11.0256  -10.4617 C   0  0  0  0  0  0
    8.0095  -11.9983   -9.5119 C   0  0  0  0  0  0
    7.5289  -11.8358   -8.2063 C   0  0  0  0  0  0
    8.7838  -13.0591   -9.9324 O   0  0  0  0  0  0
    8.7729  -14.2654   -9.1725 C   0  0  0  0  0  0
    4.3753   -2.5120   -7.8239 H   0  0  0  0  0  0
    4.1989   -1.6261   -9.3766 H   0  0  0  0  0  0
    4.3604   -3.4151   -9.3766 H   0  0  0  0  0  0
    7.7725   -2.0056   -7.8297 H   0  0  0  0  0  0
    6.1655   -1.8752   -6.9814 H   0  0  0  0  0  0
    5.9141   -4.2641   -6.9069 H   0  0  0  0  0  0
    7.3170   -4.5255   -7.9828 H   0  0  0  0  0  0
    9.1049   -8.4228   -3.8784 H   0  0  0  0  0  0
   10.6503   -5.5940   -2.2815 H   0  0  0  0  0  0
   10.4152   -7.3617   -2.3358 H   0  0  0  0  0  0
    6.8357   -8.2097   -6.8629 H   0  0  0  0  0  0
    6.2157  -11.5787   -5.9742 H   0  0  0  0  0  0
    5.2679  -10.1009   -6.4806 H   0  0  0  0  0  0
    5.4697   -6.5946   -8.6866 H   0  0  0  0  0  0
    6.4929   -7.4190   -9.9113 H   0  0  0  0  0  0
    4.7142   -7.6697   -9.9113 H   0  0  0  0  0  0
    6.6940   -9.1657  -10.8983 H   0  0  0  0  0  0
    8.0801  -11.1386  -11.4906 H   0  0  0  0  0  0
    7.7512  -12.5994   -7.4464 H   0  0  0  0  0  0
    8.7751  -14.0229   -8.0996 H   0  0  0  0  0  0
    7.8695  -14.8439   -9.4159 H   0  0  0  0  0  0
    9.6657  -14.8601   -9.4159 H   0  0  0  0  0  0
  1  2  1  0  0  0
  1 29  1  0  0  0
  1 30  1  0  0  0
  1 31  1  0  0  0
  2  3  1  0  0  0
  3  4  1  0  0  0
  3 32  1  0  0  0
  3 33  1  0  0  0
  4  5  1  0  0  0
  4 34  1  0  0  0
  4 35  1  0  0  0
  5  6  1  0  0  0
  6  7  2  0  0  0
  6 12  1  0  0  0
  7  8  1  0  0  0
  8  9  2  0  0  0
  8 15  1  0  0  0
  9 10  1  0  0  0
  9 36  1  0  0  0
 10 11  1  0  0  0
 10 12  2  0  0  0
 11 37  1  0  0  0
 11 38  1  0  0  0
 12 13  1  0  0  0
 13 14  3  0  0  0
 15 16  1  0  0  0
 15 39  1  0  0  0
 16 17  2  0  0  0
 16 18  1  0  0  0
 18 19  1  0  0  0
 18 40  1  0  0  0
 18 41  1  0  0  0
 19 20  2  0  0  0
 19 26  1  0  0  0
 20 21  1  0  0  0
 20 23  1  0  0  0
 21 22  1  0  0  0
 22 42  1  0  0  0
 22 43  1  0  0  0
 22 44  1  0  0  0
 23 24  2  0  0  0
 23 45  1  0  0  0
 24 25  1  0  0  0
 24 46  1  0  0  0
 25 26  2  0  0  0
 25 27  1  0  0  0
 26 47  1  0  0  0
 27 28  1  0  0  0
 28 48  1  0  0  0
 28 49  1  0  0  0
 28 50  1  0  0  0
M  END
> <s_m_entry_id>
24

> <s_m_entry_name>
jnk1-2.2

> <s_m_Source_Path>
D:\PyChAlPr\WorkflowForMSLD\Protein_and_Ligand_Preparation

> <s_m_Source_File>
jnk1-2.mol2

> <i_m_Source_File_Index>
2

$$$$
18660-1
                    3D
 Schrodinger Suite 2021-2.
 52 53  0  0  1  0            999 V2000
    6.8118   -1.2065   -4.9766 C   0  0  0  0  0  0
    6.4473   -1.2739   -6.7651 S   0  0  0  0  0  0
    5.3151   -0.3711   -7.0196 O   0  0  0  0  0  0
    7.7079   -1.1033   -7.4977 O   0  0  0  0  0  0
    5.8934   -2.9961   -7.0340 C   0  0  0  0  0  0
    7.0707   -3.9249   -7.3402 C   0  0  0  0  0  0
    7.9549   -3.9123   -6.2134 O   0  0  0  0  0  0
    8.2989   -5.0780   -5.5566 C   0  0  0  0  0  0
    7.7885   -6.2286   -6.0528 N   0  0  0  0  0  0
    8.0306   -7.3683   -5.4078 C   0  0  0  0  0  0
    8.8140   -7.4483   -4.2659 C   0  0  0  0  0  0
    9.3472   -6.2737   -3.7599 C   0  0  0  0  0  0
   10.0938   -6.4018   -2.5944 N   0  0  0  0  0  0
    9.1003   -5.0510   -4.4086 C   0  0  0  0  0  0
    9.6230   -3.7771   -3.9295 C   0  0  0  0  0  0
   10.0327   -2.7602   -3.5571 N   0  0  0  0  0  0
    7.3803   -8.3951   -6.0457 N   0  0  0  0  0  0
    6.9918   -9.5745   -5.5750 C   0  0  0  0  0  0
    7.2051   -9.9515   -4.4264 O   0  0  0  0  0  0
    6.1525  -10.4286   -6.5197 C   0  0  0  0  0  0
    6.7632  -10.6199   -7.9073 C   0  0  0  0  0  0
    6.6191   -9.6334   -8.8961 C   0  0  0  0  0  0
    5.9391   -8.4799   -8.5488 O   0  0  0  0  0  0
    5.7962   -7.4308   -9.5031 C   0  0  0  0  0  0
    7.1703   -9.8642  -10.1644 C   0  0  0  0  0  0
    7.8753  -11.0386  -10.4289 C   0  0  0  0  0  0
    8.0229  -12.0191   -9.4515 C   0  0  0  0  0  0
    7.4575  -11.8006   -8.1890 C   0  0  0  0  0  0
    8.7350  -13.1468   -9.8021 O   0  0  0  0  0  0
    8.5908  -14.3248   -9.0122 C   0  0  0  0  0  0
    5.8864   -1.3776   -4.4071 H   0  0  0  0  0  0
    7.5476   -1.9839   -4.7228 H   0  0  0  0  0  0
    7.2211   -0.2175   -4.7228 H   0  0  0  0  0  0
    5.3835   -3.3529   -6.1270 H   0  0  0  0  0  0
    5.2121   -3.0077   -7.8976 H   0  0  0  0  0  0
    6.7033   -4.9471   -7.5139 H   0  0  0  0  0  0
    7.5996   -3.5836   -8.2423 H   0  0  0  0  0  0
    9.0062   -8.4147   -3.7770 H   0  0  0  0  0  0
   10.5203   -5.5699   -2.1620 H   0  0  0  0  0  0
   10.2207   -7.3286   -2.1633 H   0  0  0  0  0  0
    7.1609   -8.2255   -7.0377 H   0  0  0  0  0  0
    6.0209  -11.4201   -6.0619 H   0  0  0  0  0  0
    5.2021   -9.8944   -6.6656 H   0  0  0  0  0  0
    5.6657   -6.4729   -8.9783 H   0  0  0  0  0  0
    6.6962   -7.3837  -10.1338 H   0  0  0  0  0  0
    4.9164   -7.6261  -10.1338 H   0  0  0  0  0  0
    7.0457   -9.1127  -10.9579 H   0  0  0  0  0  0
    8.3206  -11.1920  -11.4230 H   0  0  0  0  0  0
    7.5609  -12.5685   -7.4081 H   0  0  0  0  0  0
    8.6235  -14.0575   -7.9457 H   0  0  0  0  0  0
    7.6274  -14.8039   -9.2408 H   0  0  0  0  0  0
    9.4103  -15.0221   -9.2408 H   0  0  0  0  0  0
  1  2  1  0  0  0
  1 31  1  0  0  0
  1 32  1  0  0  0
  1 33  1  0  0  0
  2  3  2  0  0  0
  2  4  2  0  0  0
  2  5  1  0  0  0
  5  6  1  0  0  0
  5 34  1  0  0  0
  5 35  1  0  0  0
  6  7  1  0  0  0
  6 36  1  0  0  0
  6 37  1  0  0  0
  7  8  1  0  0  0
  8  9  2  0  0  0
  8 14  1  0  0  0
  9 10  1  0  0  0
 10 11  2  0  0  0
 10 17  1  0  0  0
 11 12  1  0  0  0
 11 38  1  0  0  0
 12 13  1  0  0  0
 12 14  2  0  0  0
 13 39  1  0  0  0
 13 40  1  0  0  0
 14 15  1  0  0  0
 15 16  3  0  0  0
 17 18  1  0  0  0
 17 41  1  0  0  0
 18 19  2  0  0  0
 18 20  1  0  0  0
 20 21  1  0  0  0
 20 42  1  0  0  0
 20 43  1  0  0  0
 21 22  2  0  0  0
 21 28  1  0  0  0
 22 23  1  0  0  0
 22 25  1  0  0  0
 23 24  1  0  0  0
 24 44  1  0  0  0
 24 45  1  0  0  0
 24 46  1  0  0  0
 25 26  2  0  0  0
 25 47  1  0  0  0
 26 27  1  0  0  0
 26 48  1  0  0  0
 27 28  2  0  0  0
 27 29  1  0  0  0
 28 49  1  0  0  0
 29 30  1  0  0  0
 30 50  1  0  0  0
 30 51  1  0  0  0
 30 52  1  0  0  0
M  END
> <s_m_entry_id>
23

> <s_m_entry_name>
jnk1-2.1

> <s_m_Source_Path>
D:\PyChAlPr\WorkflowForMSLD\Protein_and_Ligand_Preparation

> <s_m_Source_File>
jnk1-2.mol2

> <i_m_Source_File_Index>
1

$$$$
18637-1
                    3D
 Schrodinger Suite 2021-2.
 53 54  0  0  1  0            999 V2000
    6.7672   -2.5009   -7.7549 C   0  0  0  0  0  0
    6.8808   -3.9221   -7.1981 C   0  0  0  0  0  0
    7.7962   -3.8891   -6.1069 O   0  0  0  0  0  0
    8.1561   -5.0681   -5.4771 C   0  0  0  0  0  0
    7.6266   -6.2240   -5.9629 N   0  0  0  0  0  0
    7.9451   -7.3764   -5.3537 C   0  0  0  0  0  0
    8.8179   -7.4485   -4.2771 C   0  0  0  0  0  0
    9.3509   -6.2719   -3.7818 C   0  0  0  0  0  0
   10.1905   -6.4085   -2.6827 N   0  0  0  0  0  0
    9.0201   -5.0439   -4.3768 C   0  0  0  0  0  0
    9.5204   -3.7641   -3.8887 C   0  0  0  0  0  0
    9.9116   -2.7434   -3.5080 N   0  0  0  0  0  0
    7.2920   -8.4399   -5.9429 N   0  0  0  0  0  0
    7.1354   -9.6998   -5.5270 C   0  0  0  0  0  0
    7.5731  -10.1452   -4.4681 O   0  0  0  0  0  0
    6.2759  -10.5929   -6.4150 C   0  0  0  0  0  0
    6.7773  -10.7017   -7.8531 C   0  0  0  0  0  0
    6.4781   -9.7047   -8.7919 C   0  0  0  0  0  0
    5.7551   -8.6096   -8.3519 O   0  0  0  0  0  0
    5.6134   -7.4730   -9.2023 C   0  0  0  0  0  0
    6.9260   -9.8617  -10.1081 C   0  0  0  0  0  0
    7.6965  -10.9706  -10.4862 C   0  0  0  0  0  0
    8.0099  -11.9565   -9.5373 C   0  0  0  0  0  0
    7.5383  -11.8123   -8.2256 C   0  0  0  0  0  0
    8.7941  -13.0228   -9.9480 O   0  0  0  0  0  0
    8.7697  -14.2341   -9.1946 C   0  0  0  0  0  0
    8.2078  -11.1627  -11.7907 N   0  0  0  0  0  0
    8.0719  -10.4453  -12.9180 C   0  0  0  0  0  0
    7.3799   -9.4388  -13.0333 O   0  0  0  0  0  0
    8.8648  -10.9236  -14.1217 C   0  0  0  0  0  0
    6.7100   -1.7843   -6.9222 H   0  0  0  0  0  0
    7.6504   -2.2769   -8.3713 H   0  0  0  0  0  0
    5.8598   -2.4200   -8.3713 H   0  0  0  0  0  0
    5.8961   -4.2678   -6.8504 H   0  0  0  0  0  0
    7.2352   -4.6133   -7.9769 H   0  0  0  0  0  0
    9.0795   -8.4180   -3.8282 H   0  0  0  0  0  0
   10.6244   -5.5757   -2.2595 H   0  0  0  0  0  0
   10.3788   -7.3425   -2.2913 H   0  0  0  0  0  0
    6.8542   -8.2278   -6.8508 H   0  0  0  0  0  0
    6.2575  -11.6018   -5.9773 H   0  0  0  0  0  0
    5.2774  -10.1334   -6.4589 H   0  0  0  0  0  0
    5.5005   -6.5674   -8.5882 H   0  0  0  0  0  0
    6.5065   -7.3765   -9.8372 H   0  0  0  0  0  0
    4.7240   -7.5987   -9.8372 H   0  0  0  0  0  0
    6.6690   -9.1012  -10.8602 H   0  0  0  0  0  0
    7.7707  -12.5852   -7.4783 H   0  0  0  0  0  0
    8.7745  -13.9978   -8.1202 H   0  0  0  0  0  0
    7.8600  -14.8011   -9.4413 H   0  0  0  0  0  0
    9.6559  -14.8372   -9.4413 H   0  0  0  0  0  0
    8.7901  -12.0058  -11.8953 H   0  0  0  0  0  0
    9.7601  -11.4636  -13.7800 H   0  0  0  0  0  0
    8.2404  -11.5958  -14.7285 H   0  0  0  0  0  0
    9.1682  -10.0577  -14.7285 H   0  0  0  0  0  0
  1  2  1  0  0  0
  1 31  1  0  0  0
  1 32  1  0  0  0
  1 33  1  0  0  0
  2  3  1  0  0  0
  2 34  1  0  0  0
  2 35  1  0  0  0
  3  4  1  0  0  0
  4  5  2  0  0  0
  4 10  1  0  0  0
  5  6  1  0  0  0
  6  7  2  0  0  0
  6 13  1  0  0  0
  7  8  1  0  0  0
  7 36  1  0  0  0
  8  9  1  0  0  0
  8 10  2  0  0  0
  9 37  1  0  0  0
  9 38  1  0  0  0
 10 11  1  0  0  0
 11 12  3  0  0  0
 13 14  1  0  0  0
 13 39  1  0  0  0
 14 15  2  0  0  0
 14 16  1  0  0  0
 16 17  1  0  0  0
 16 40  1  0  0  0
 16 41  1  0  0  0
 17 18  2  0  0  0
 17 24  1  0  0  0
 18 19  1  0  0  0
 18 21  1  0  0  0
 19 20  1  0  0  0
 20 42  1  0  0  0
 20 43  1  0  0  0
 20 44  1  0  0  0
 21 22  2  0  0  0
 21 45  1  0  0  0
 22 23  1  0  0  0
 22 27  1  0  0  0
 23 24  2  0  0  0
 23 25  1  0  0  0
 24 46  1  0  0  0
 25 26  1  0  0  0
 26 47  1  0  0  0
 26 48  1  0  0  0
 26 49  1  0  0  0
 27 28  1  0  0  0
 27 50  1  0  0  0
 28 29  2  0  0  0
 28 30  1  0  0  0
 30 51  1  0  0  0
 30 52  1  0  0  0
 30 53  1  0  0  0
M  END
> <s_m_entry_id>
25

> <s_m_entry_name>
jnk1-2.3

> <s_m_Source_Path>
D:\PyChAlPr\WorkflowForMSLD\Protein_and_Ligand_Preparation

> <s_m_Source_File>
jnk1-2.mol2

> <i_m_Source_File_Index>
3

$$$$
18638-1
                    3D
 Schrodinger Suite 2021-2.
 52 53  0  0  1  0            999 V2000
    6.7358   -2.4564   -7.6962 C   0  0  0  0  0  0
    6.8844   -3.8897   -7.1807 C   0  0  0  0  0  0
    7.7754   -3.8620   -6.0691 O   0  0  0  0  0  0
    8.1470   -5.0477   -5.4588 C   0  0  0  0  0  0
    7.6184   -6.1995   -5.9561 N   0  0  0  0  0  0
    7.9449   -7.3582   -5.3640 C   0  0  0  0  0  0
    8.8278   -7.4412   -4.2961 C   0  0  0  0  0  0
    9.3622   -6.2693   -3.7909 C   0  0  0  0  0  0
   10.2143   -6.4170   -2.7024 N   0  0  0  0  0  0
    9.0214   -5.0346   -4.3663 C   0  0  0  0  0  0
    9.5240   -3.7600   -3.8670 C   0  0  0  0  0  0
    9.9175   -2.7436   -3.4770 N   0  0  0  0  0  0
    7.2872   -8.4150   -5.9610 N   0  0  0  0  0  0
    7.1323   -9.6785   -5.5555 C   0  0  0  0  0  0
    7.5818  -10.1364   -4.5072 O   0  0  0  0  0  0
    6.2607  -10.5609   -6.4399 C   0  0  0  0  0  0
    6.7815  -10.7051   -7.8663 C   0  0  0  0  0  0
    6.5092   -9.7199   -8.8274 C   0  0  0  0  0  0
    5.7994   -8.6055   -8.4149 O   0  0  0  0  0  0
    5.6132   -7.5116   -9.3108 C   0  0  0  0  0  0
    6.9595   -9.9166  -10.1386 C   0  0  0  0  0  0
    7.6963  -11.0567  -10.4768 C   0  0  0  0  0  0
    8.2285  -11.2744  -12.1803 S   0  0  0  0  0  0
    7.8709  -10.0673  -12.9433 O   0  0  0  0  0  0
    9.6239  -11.7421  -12.1875 O   0  0  0  0  0  0
    7.1714  -12.6462  -12.7953 C   0  0  0  0  0  0
    7.9864  -12.0352   -9.5166 C   0  0  0  0  0  0
    7.5178  -11.8426   -8.2100 C   0  0  0  0  0  0
    8.7203  -13.1398   -9.9040 O   0  0  0  0  0  0
    8.7004  -14.3192   -9.1041 C   0  0  0  0  0  0
    6.6642   -1.7656   -6.8432 H   0  0  0  0  0  0
    7.6116   -2.1941   -8.3080 H   0  0  0  0  0  0
    5.8249   -2.3794   -8.3080 H   0  0  0  0  0  0
    5.9046   -4.2776   -6.8654 H   0  0  0  0  0  0
    7.2778   -4.5442   -7.9724 H   0  0  0  0  0  0
    9.0961   -8.4156   -3.8617 H   0  0  0  0  0  0
   10.6498   -5.5881   -2.2731 H   0  0  0  0  0  0
   10.4102   -7.3552   -2.3253 H   0  0  0  0  0  0
    6.8447   -8.1938   -6.8644 H   0  0  0  0  0  0
    6.2076  -11.5618   -5.9868 H   0  0  0  0  0  0
    5.2752  -10.0766   -6.5051 H   0  0  0  0  0  0
    5.4560   -6.5881   -8.7342 H   0  0  0  0  0  0
    6.5054   -7.4007   -9.9446 H   0  0  0  0  0  0
    4.7346   -7.7022   -9.9446 H   0  0  0  0  0  0
    6.7316   -9.1670  -10.9107 H   0  0  0  0  0  0
    6.7486  -13.1948  -11.9407 H   0  0  0  0  0  0
    6.3550  -12.2342  -13.4067 H   0  0  0  0  0  0
    7.7778  -13.3307  -13.4067 H   0  0  0  0  0  0
    7.7331  -12.5997   -7.4416 H   0  0  0  0  0  0
    8.7051  -14.0406   -8.0399 H   0  0  0  0  0  0
    7.7924  -14.8984   -9.3274 H   0  0  0  0  0  0
    9.5884  -14.9288   -9.3274 H   0  0  0  0  0  0
  1  2  1  0  0  0
  1 31  1  0  0  0
  1 32  1  0  0  0
  1 33  1  0  0  0
  2  3  1  0  0  0
  2 34  1  0  0  0
  2 35  1  0  0  0
  3  4  1  0  0  0
  4  5  2  0  0  0
  4 10  1  0  0  0
  5  6  1  0  0  0
  6  7  2  0  0  0
  6 13  1  0  0  0
  7  8  1  0  0  0
  7 36  1  0  0  0
  8  9  1  0  0  0
  8 10  2  0  0  0
  9 37  1  0  0  0
  9 38  1  0  0  0
 10 11  1  0  0  0
 11 12  3  0  0  0
 13 14  1  0  0  0
 13 39  1  0  0  0
 14 15  2  0  0  0
 14 16  1  0  0  0
 16 17  1  0  0  0
 16 40  1  0  0  0
 16 41  1  0  0  0
 17 18  2  0  0  0
 17 28  1  0  0  0
 18 19  1  0  0  0
 18 21  1  0  0  0
 19 20  1  0  0  0
 20 42  1  0  0  0
 20 43  1  0  0  0
 20 44  1  0  0  0
 21 22  2  0  0  0
 21 45  1  0  0  0
 22 23  1  0  0  0
 22 27  1  0  0  0
 23 24  2  0  0  0
 23 25  2  0  0  0
 23 26  1  0  0  0
 26 46  1  0  0  0
 26 47  1  0  0  0
 26 48  1  0  0  0
 27 28  2  0  0  0
 27 29  1  0  0  0
 28 49  1  0  0  0
 29 30  1  0  0  0
 30 50  1  0  0  0
 30 51  1  0  0  0
 30 52  1  0  0  0
M  END
> <s_m_entry_id>
26

> <s_m_entry_name>
jnk1-2.4

> <s_m_Source_Path>
D:\PyChAlPr\WorkflowForMSLD\Protein_and_Ligand_Preparation

> <s_m_Source_File>
jnk1-2.mol2

> <i_m_Source_File_Index>
4

$$$$
18652-1
                    3D
 Schrodinger Suite 2021-2.
 55 56  0  0  1  0            999 V2000
    7.0481   -4.3431   -8.2623 C   0  0  0  0  0  0
    6.6650   -3.7183   -6.9145 C   0  0  0  0  0  0
    5.2961   -4.1926   -6.4059 C   0  0  0  0  0  0
    7.7106   -3.7950   -5.9335 O   0  0  0  0  0  0
    8.1424   -4.9890   -5.3765 C   0  0  0  0  0  0
    7.6275   -6.1366   -5.8815 N   0  0  0  0  0  0
    7.9790   -7.3018   -5.3328 C   0  0  0  0  0  0
    8.8808   -7.4043   -4.2843 C   0  0  0  0  0  0
    9.4150   -6.2354   -3.7673 C   0  0  0  0  0  0
   10.2865   -6.3957   -2.6964 N   0  0  0  0  0  0
    9.0529   -4.9909   -4.3126 C   0  0  0  0  0  0
    9.5662   -3.7231   -3.8063 C   0  0  0  0  0  0
    9.9701   -2.7125   -3.4104 N   0  0  0  0  0  0
    7.3140   -8.3323   -5.9596 N   0  0  0  0  0  0
    7.1109   -9.5885   -5.5651 C   0  0  0  0  0  0
    7.5274  -10.0576   -4.5091 O   0  0  0  0  0  0
    6.2218  -10.4352   -6.4676 C   0  0  0  0  0  0
    6.7377  -10.5667   -7.8978 C   0  0  0  0  0  0
    6.4682   -9.5716   -8.8498 C   0  0  0  0  0  0
    5.7648   -8.4575   -8.4275 O   0  0  0  0  0  0
    5.3781   -7.4652   -9.3759 C   0  0  0  0  0  0
    6.9221   -9.7552  -10.1622 C   0  0  0  0  0  0
    7.6512  -10.8960  -10.5128 C   0  0  0  0  0  0
    8.1936  -11.0935  -12.2154 S   0  0  0  0  0  0
    9.5920  -11.5521  -12.2180 O   0  0  0  0  0  0
    7.8333   -9.8807  -12.9682 O   0  0  0  0  0  0
    7.1485  -12.4647  -12.8524 C   0  0  0  0  0  0
    7.9280  -11.8896   -9.5649 C   0  0  0  0  0  0
    7.4607  -11.7076   -8.2567 C   0  0  0  0  0  0
    8.6502  -12.9978   -9.9637 O   0  0  0  0  0  0
    8.5881  -14.1940   -9.1914 C   0  0  0  0  0  0
    7.6160   -5.2691   -8.0889 H   0  0  0  0  0  0
    6.1359   -4.5736   -8.8321 H   0  0  0  0  0  0
    7.6672   -3.6345   -8.8321 H   0  0  0  0  0  0
    6.5441   -2.6416   -7.1046 H   0  0  0  0  0  0
    5.2938   -4.1934   -5.3059 H   0  0  0  0  0  0
    4.5129   -3.5134   -6.7738 H   0  0  0  0  0  0
    5.1010   -5.2107   -6.7738 H   0  0  0  0  0  0
    9.1637   -8.3853   -3.8750 H   0  0  0  0  0  0
   10.7229   -5.5712   -2.2597 H   0  0  0  0  0  0
   10.4958   -7.3389   -2.3394 H   0  0  0  0  0  0
    6.9106   -8.0945   -6.8770 H   0  0  0  0  0  0
    6.1466  -11.4428   -6.0327 H   0  0  0  0  0  0
    5.2485   -9.9259   -6.5251 H   0  0  0  0  0  0
    5.0282   -6.5675   -8.8452 H   0  0  0  0  0  0
    6.2407   -7.2053  -10.0070 H   0  0  0  0  0  0
    4.5670   -7.8576  -10.0070 H   0  0  0  0  0  0
    6.7028   -8.9939  -10.9253 H   0  0  0  0  0  0
    6.7221  -13.0241  -12.0067 H   0  0  0  0  0  0
    6.3346  -12.0509  -13.4659 H   0  0  0  0  0  0
    7.7633  -13.1397  -13.4659 H   0  0  0  0  0  0
    7.6666  -12.4770   -7.4980 H   0  0  0  0  0  0
    8.6013  -13.9405   -8.1211 H   0  0  0  0  0  0
    7.6607  -14.7358   -9.4286 H   0  0  0  0  0  0
    9.4545  -14.8289   -9.4286 H   0  0  0  0  0  0
  1  2  1  0  0  0
  1 32  1  0  0  0
  1 33  1  0  0  0
  1 34  1  0  0  0
  2  3  1  0  0  0
  2  4  1  0  0  0
  2 35  1  0  0  0
  3 36  1  0  0  0
  3 37  1  0  0  0
  3 38  1  0  0  0
  4  5  1  0  0  0
  5  6  2  0  0  0
  5 11  1  0  0  0
  6  7  1  0  0  0
  7  8  2  0  0  0
  7 14  1  0  0  0
  8  9  1  0  0  0
  8 39  1  0  0  0
  9 10  1  0  0  0
  9 11  2  0  0  0
 10 40  1  0  0  0
 10 41  1  0  0  0
 11 12  1  0  0  0
 12 13  3  0  0  0
 14 15  1  0  0  0
 14 42  1  0  0  0
 15 16  2  0  0  0
 15 17  1  0  0  0
 17 18  1  0  0  0
 17 43  1  0  0  0
 17 44  1  0  0  0
 18 19  2  0  0  0
 18 29  1  0  0  0
 19 20  1  0  0  0
 19 22  1  0  0  0
 20 21  1  0  0  0
 21 45  1  0  0  0
 21 46  1  0  0  0
 21 47  1  0  0  0
 22 23  2  0  0  0
 22 48  1  0  0  0
 23 24  1  0  0  0
 23 28  1  0  0  0
 24 25  2  0  0  0
 24 26  2  0  0  0
 24 27  1  0  0  0
 27 49  1  0  0  0
 27 50  1  0  0  0
 27 51  1  0  0  0
 28 29  2  0  0  0
 28 30  1  0  0  0
 29 52  1  0  0  0
 30 31  1  0  0  0
 31 53  1  0  0  0
 31 54  1  0  0  0
 31 55  1  0  0  0
M  END
> <s_m_entry_id>
27

> <s_m_entry_name>
jnk1-2.5

> <s_m_Source_Path>
D:\PyChAlPr\WorkflowForMSLD\Protein_and_Ligand_Preparation

> <s_m_Source_File>
jnk1-2.mol2

> <i_m_Source_File_Index>
5

$$$$
18658-1
                    3D
 Schrodinger Suite 2021-2.
 47 48  0  0  1  0            999 V2000
    5.2445   -2.2852   -8.1664 O   0  0  0  0  0  0
    6.4156   -2.3755   -7.3698 C   0  0  0  0  0  0
    6.7424   -3.8356   -7.0203 C   0  0  0  0  0  0
    7.8553   -3.8558   -6.1235 O   0  0  0  0  0  0
    8.2238   -5.0495   -5.5273 C   0  0  0  0  0  0
    7.6694   -6.1886   -6.0231 N   0  0  0  0  0  0
    7.9493   -7.3512   -5.4141 C   0  0  0  0  0  0
    8.8016   -7.4486   -4.3229 C   0  0  0  0  0  0
    9.3625   -6.2876   -3.8197 C   0  0  0  0  0  0
   10.1663   -6.4434   -2.6970 N   0  0  0  0  0  0
    9.0840   -5.0514   -4.4242 C   0  0  0  0  0  0
    9.6171   -3.7866   -3.9317 C   0  0  0  0  0  0
   10.0345   -2.7775   -3.5479 N   0  0  0  0  0  0
    7.2742   -8.3960   -6.0130 N   0  0  0  0  0  0
    7.0390   -9.6376   -5.5792 C   0  0  0  0  0  0
    7.4070  -10.0800   -4.4925 O   0  0  0  0  0  0
    6.1802  -10.5086   -6.4896 C   0  0  0  0  0  0
    6.7694  -10.7035   -7.8840 C   0  0  0  0  0  0
    6.6004   -9.7229   -8.8746 C   0  0  0  0  0  0
    5.9133   -8.5738   -8.5243 O   0  0  0  0  0  0
    5.8691   -7.4764   -9.4339 C   0  0  0  0  0  0
    7.1338   -9.9555  -10.1499 C   0  0  0  0  0  0
    7.8519  -11.1215  -10.4173 C   0  0  0  0  0  0
    8.0299  -12.0930   -9.4357 C   0  0  0  0  0  0
    7.4783  -11.8762   -8.1666 C   0  0  0  0  0  0
    8.7596  -13.2084   -9.7889 O   0  0  0  0  0  0
    8.6257  -14.3951   -9.0100 C   0  0  0  0  0  0
    4.4498   -2.2239   -7.5792 H   0  0  0  0  0  0
    7.2607   -1.9422   -7.9248 H   0  0  0  0  0  0
    6.2416   -1.8252   -6.4334 H   0  0  0  0  0  0
    5.8713   -4.3046   -6.5395 H   0  0  0  0  0  0
    6.9895   -4.3930   -7.9359 H   0  0  0  0  0  0
    9.0260   -8.4252   -3.8690 H   0  0  0  0  0  0
   10.6168   -5.6224   -2.2681 H   0  0  0  0  0  0
   10.3116   -7.3799   -2.2936 H   0  0  0  0  0  0
    6.8897   -8.1840   -6.9448 H   0  0  0  0  0  0
    6.0663  -11.4965   -6.0192 H   0  0  0  0  0  0
    5.2176   -9.9914   -6.6160 H   0  0  0  0  0  0
    5.8311   -6.5333   -8.8690 H   0  0  0  0  0  0
    6.7685   -7.4885  -10.0671 H   0  0  0  0  0  0
    4.9736   -7.5609  -10.0671 H   0  0  0  0  0  0
    6.9849   -9.2121  -10.9469 H   0  0  0  0  0  0
    8.2834  -11.2754  -11.4174 H   0  0  0  0  0  0
    7.6040  -12.6374   -7.3825 H   0  0  0  0  0  0
    8.6548  -14.1372   -7.9410 H   0  0  0  0  0  0
    7.6671  -14.8811   -9.2440 H   0  0  0  0  0  0
    9.4520  -15.0824   -9.2440 H   0  0  0  0  0  0
  1  2  1  0  0  0
  1 28  1  0  0  0
  2  3  1  0  0  0
  2 29  1  0  0  0
  2 30  1  0  0  0
  3  4  1  0  0  0
  3 31  1  0  0  0
  3 32  1  0  0  0
  4  5  1  0  0  0
  5  6  2  0  0  0
  5 11  1  0  0  0
  6  7  1  0  0  0
  7  8  2  0  0  0
  7 14  1  0  0  0
  8  9  1  0  0  0
  8 33  1  0  0  0
  9 10  1  0  0  0
  9 11  2  0  0  0
 10 34  1  0  0  0
 10 35  1  0  0  0
 11 12  1  0  0  0
 12 13  3  0  0  0
 14 15  1  0  0  0
 14 36  1  0  0  0
 15 16  2  0  0  0
 15 17  1  0  0  0
 17 18  1  0  0  0
 17 37  1  0  0  0
 17 38  1  0  0  0
 18 19  2  0  0  0
 18 25  1  0  0  0
 19 20  1  0  0  0
 19 22  1  0  0  0
 20 21  1  0  0  0
 21 39  1  0  0  0
 21 40  1  0  0  0
 21 41  1  0  0  0
 22 23  2  0  0  0
 22 42  1  0  0  0
 23 24  1  0  0  0
 23 43  1  0  0  0
 24 25  2  0  0  0
 24 26  1  0  0  0
 25 44  1  0  0  0
 26 27  1  0  0  0
 27 45  1  0  0  0
 27 46  1  0  0  0
 27 47  1  0  0  0
M  END
> <s_m_entry_id>
28

> <s_m_entry_name>
jnk1-2.6

> <s_m_Source_Path>
D:\PyChAlPr\WorkflowForMSLD\Protein_and_Ligand_Preparation

> <s_m_Source_File>
jnk1-2.mol2

> <i_m_Source_File_Index>
6

$$$$
18639-1
                    3D
 Schrodinger Suite 2021-2.
 49 50  0  0  1  0            999 V2000
    6.9925   -3.9067   -8.2187 C   0  0  0  0  0  0
    6.5718   -3.7253   -6.7587 C   0  0  0  0  0  0
    7.7250   -3.7768   -5.9193 O   0  0  0  0  0  0
    8.1632   -4.9861   -5.4066 C   0  0  0  0  0  0
    7.6195   -6.1221   -5.9233 N   0  0  0  0  0  0
    7.9574   -7.2976   -5.3737 C   0  0  0  0  0  0
    8.8621   -7.4133   -4.3276 C   0  0  0  0  0  0
    9.4144   -6.2569   -3.8052 C   0  0  0  0  0  0
   10.2668   -6.4320   -2.7221 N   0  0  0  0  0  0
    9.0775   -5.0070   -4.3485 C   0  0  0  0  0  0
    9.6017   -3.7468   -3.8349 C   0  0  0  0  0  0
   10.0113   -2.7409   -3.4346 N   0  0  0  0  0  0
    7.2744   -8.3338   -5.9786 N   0  0  0  0  0  0
    7.0843   -9.5935   -5.5758 C   0  0  0  0  0  0
    7.5189  -10.0643   -4.5271 O   0  0  0  0  0  0
    6.1944  -10.4522   -6.4660 C   0  0  0  0  0  0
    6.7275  -10.6082   -7.8867 C   0  0  0  0  0  0
    6.4758   -9.6281   -8.8538 C   0  0  0  0  0  0
    5.7626   -8.5095   -8.4581 O   0  0  0  0  0  0
    5.6200   -7.4076   -9.3524 C   0  0  0  0  0  0
    6.9608   -9.8282  -10.1513 C   0  0  0  0  0  0
    7.7288  -10.9548  -10.4916 C   0  0  0  0  0  0
    8.2437  -11.0820  -11.8819 N   0  3  0  0  0  0
    9.1918  -11.8255  -12.1141 O   0  0  0  0  0  0
    7.7142  -10.4068  -12.7608 O   0  0  0  0  0  0
    7.9850  -11.9299   -9.5054 C   0  0  0  0  0  0
    7.4728  -11.7414   -8.2144 C   0  0  0  0  0  0
    8.7491  -13.0335   -9.8341 O   0  0  0  0  0  0
    8.6051  -14.2424   -9.0916 C   0  0  0  0  0  0
    8.0020   -4.3419   -8.2581 H   0  0  0  0  0  0
    6.2834   -4.5791   -8.7238 H   0  0  0  0  0  0
    6.9946   -2.9295   -8.7238 H   0  0  0  0  0  0
    6.0748   -2.7513   -6.6391 H   0  0  0  0  0  0
    5.8771   -4.5299   -6.4756 H   0  0  0  0  0  0
    9.1334   -8.3998   -3.9236 H   0  0  0  0  0  0
   10.7144   -5.6155   -2.2818 H   0  0  0  0  0  0
   10.4512   -7.3783   -2.3596 H   0  0  0  0  0  0
    6.8431   -8.0984   -6.8838 H   0  0  0  0  0  0
    6.1096  -11.4514   -6.0139 H   0  0  0  0  0  0
    5.2214   -9.9443   -6.5386 H   0  0  0  0  0  0
    5.4998   -6.4794   -8.7744 H   0  0  0  0  0  0
    6.5157   -7.3314   -9.9863 H   0  0  0  0  0  0
    4.7343   -7.5620   -9.9863 H   0  0  0  0  0  0
    6.7343   -9.0820  -10.9271 H   0  0  0  0  0  0
    9.5376  -11.9131  -13.0376 H   0  0  0  0  0  0
    7.6623  -12.5028   -7.4435 H   0  0  0  0  0  0
    8.6320  -14.0171   -8.0153 H   0  0  0  0  0  0
    7.6443  -14.7152   -9.3434 H   0  0  0  0  0  0
    9.4280  -14.9276   -9.3434 H   0  0  0  0  0  0
  1  2  1  0  0  0
  1 30  1  0  0  0
  1 31  1  0  0  0
  1 32  1  0  0  0
  2  3  1  0  0  0
  2 33  1  0  0  0
  2 34  1  0  0  0
  3  4  1  0  0  0
  4  5  2  0  0  0
  4 10  1  0  0  0
  5  6  1  0  0  0
  6  7  2  0  0  0
  6 13  1  0  0  0
  7  8  1  0  0  0
  7 35  1  0  0  0
  8  9  1  0  0  0
  8 10  2  0  0  0
  9 36  1  0  0  0
  9 37  1  0  0  0
 10 11  1  0  0  0
 11 12  3  0  0  0
 13 14  1  0  0  0
 13 38  1  0  0  0
 14 15  2  0  0  0
 14 16  1  0  0  0
 16 17  1  0  0  0
 16 39  1  0  0  0
 16 40  1  0  0  0
 17 18  2  0  0  0
 17 27  1  0  0  0
 18 19  1  0  0  0
 18 21  1  0  0  0
 19 20  1  0  0  0
 20 41  1  0  0  0
 20 42  1  0  0  0
 20 43  1  0  0  0
 21 22  2  0  0  0
 21 44  1  0  0  0
 22 23  1  0  0  0
 22 26  1  0  0  0
 23 24  1  0  0  0
 23 25  2  0  0  0
 24 45  1  0  0  0
 26 27  2  0  0  0
 26 28  1  0  0  0
 27 46  1  0  0  0
 28 29  1  0  0  0
 29 47  1  0  0  0
 29 48  1  0  0  0
 29 49  1  0  0  0
M  CHG  1  23   1
M  END
> <s_m_entry_id>
29

> <s_m_entry_name>
jnk1-2.7

> <s_m_Source_Path>
D:\PyChAlPr\WorkflowForMSLD\Protein_and_Ligand_Preparation

> <s_m_Source_File>
jnk1-2.mol2

> <i_m_Source_File_Index>
7

$$$$
