18634-1
     RDKit          3D

 46 47  0  0  1  0  0  0  0  0999 V2000
    6.7869   -2.5405   -7.8009 C   0  0  0  0  0  0  0  0  0  0  0  0
    6.9028   -3.9592   -7.2383 C   0  0  0  0  0  0  0  0  0  0  0  0
    7.8036   -3.9172   -6.1352 O   0  0  0  0  0  0  0  0  0  0  0  0
    8.1568   -5.0918   -5.4933 C   0  0  0  0  0  0  0  0  0  0  0  0
    7.6215   -6.2496   -5.9681 N   0  0  0  0  0  0  0  0  0  0  0  0
    7.9318   -7.3973   -5.3458 C   0  0  0  0  0  0  0  0  0  0  0  0
    8.8039   -7.4635   -4.2683 C   0  0  0  0  0  0  0  0  0  0  0  0
    9.3442   -6.2853   -3.7856 C   0  0  0  0  0  0  0  0  0  0  0  0
   10.1843   -6.4164   -2.6864 N   0  0  0  0  0  0  0  0  0  0  0  0
    9.0200   -5.0613   -4.3924 C   0  0  0  0  0  0  0  0  0  0  0  0
    9.5263   -3.7796   -3.9161 C   0  0  0  0  0  0  0  0  0  0  0  0
    9.9222   -2.7573   -3.5444 N   0  0  0  0  0  0  0  0  0  0  0  0
    7.2739   -8.4629   -5.9246 N   0  0  0  0  0  0  0  0  0  0  0  0
    7.1188   -9.7208   -5.5020 C   0  0  0  0  0  0  0  0  0  0  0  0
    7.5491  -10.1586   -4.4366 O   0  0  0  0  0  0  0  0  0  0  0  0
    6.2758  -10.6238   -6.3948 C   0  0  0  0  0  0  0  0  0  0  0  0
    6.7713  -10.6906   -7.8370 C   0  0  0  0  0  0  0  0  0  0  0  0
    6.4178   -9.6981   -8.7648 C   0  0  0  0  0  0  0  0  0  0  0  0
    5.6466   -8.6428   -8.3126 O   0  0  0  0  0  0  0  0  0  0  0  0
    5.5282   -7.4737   -9.1211 C   0  0  0  0  0  0  0  0  0  0  0  0
    6.8676   -9.8199  -10.0867 C   0  0  0  0  0  0  0  0  0  0  0  0
    7.7063  -10.8710  -10.4591 C   0  0  0  0  0  0  0  0  0  0  0  0
    8.0995  -11.8344   -9.5202 C   0  0  0  0  0  0  0  0  0  0  0  0
    7.6016  -11.7467   -8.2234 C   0  0  0  0  0  0  0  0  0  0  0  0
    8.9596  -12.8797   -9.7825 O   0  0  0  0  0  0  0  0  0  0  0  0
    9.6489  -12.9111  -11.0276 C   0  0  0  0  0  0  0  0  0  0  0  0
    6.7281   -1.8207   -6.9713 H   0  0  0  0  0  0  0  0  0  0  0  0
    7.6698   -2.3175   -8.4180 H   0  0  0  0  0  0  0  0  0  0  0  0
    5.8795   -2.4638   -8.4180 H   0  0  0  0  0  0  0  0  0  0  0  0
    5.9160   -4.3105   -6.9025 H   0  0  0  0  0  0  0  0  0  0  0  0
    7.2723   -4.6501   -8.0104 H   0  0  0  0  0  0  0  0  0  0  0  0
    9.0594   -8.4299   -3.8091 H   0  0  0  0  0  0  0  0  0  0  0  0
   10.6238   -5.5823   -2.2717 H   0  0  0  0  0  0  0  0  0  0  0  0
   10.3674   -7.3477   -2.2864 H   0  0  0  0  0  0  0  0  0  0  0  0
    6.8298   -8.2547   -6.8303 H   0  0  0  0  0  0  0  0  0  0  0  0
    6.2905  -11.6403   -5.9745 H   0  0  0  0  0  0  0  0  0  0  0  0
    5.2624  -10.1969   -6.4210 H   0  0  0  0  0  0  0  0  0  0  0  0
    5.4386   -6.5884   -8.4745 H   0  0  0  0  0  0  0  0  0  0  0  0
    6.4210   -7.3751   -9.7561 H   0  0  0  0  0  0  0  0  0  0  0  0
    4.6338   -7.5561   -9.7561 H   0  0  0  0  0  0  0  0  0  0  0  0
    6.5563   -9.0793  -10.8381 H   0  0  0  0  0  0  0  0  0  0  0  0
    8.0617  -10.9440  -11.4976 H   0  0  0  0  0  0  0  0  0  0  0  0
    7.8662  -12.5222   -7.4895 H   0  0  0  0  0  0  0  0  0  0  0  0
   10.7326  -12.9605  -10.8455 H   0  0  0  0  0  0  0  0  0  0  0  0
    9.3325  -13.7958  -11.5997 H   0  0  0  0  0  0  0  0  0  0  0  0
    9.4144  -12.0013  -11.5997 H   0  0  0  0  0  0  0  0  0  0  0  0
  1  2  1  0
  2  3  1  0
  3  4  1  0
  4  5  2  0
  4 10  1  0
  5  6  1  0
  6  7  2  0
  6 13  1  0
  7  8  1  0
  8  9  1  0
  8 10  2  0
 10 11  1  0
 11 12  3  0
 13 14  1  0
 14 15  2  0
 14 16  1  0
 16 17  1  0
 17 18  2  0
 17 24  1  0
 18 19  1  0
 18 21  1  0
 19 20  1  0
 21 22  2  0
 22 23  1  0
 23 24  2  0
 23 25  1  0
 25 26  1  0
  1 27  1  0
  1 28  1  0
  1 29  1  0
  2 30  1  0
  2 31  1  0
  7 32  1  0
  9 33  1  0
  9 34  1  0
 13 35  1  0
 16 36  1  0
 16 37  1  0
 20 38  1  0
 20 39  1  0
 20 40  1  0
 21 41  1  0
 22 42  1  0
 24 43  1  0
 26 44  1  0
 26 45  1  0
 26 46  1  0
M  END
>  <s_m_entry_id>  (1) 
2

>  <s_m_entry_name>  (1) 
Jnk1_ligands.2

>  <s_m_Source_Path>  (1) 
D:\PyChAlPr\WorkflowForMSLD\Protein_and_Ligand_Preparation

>  <s_m_Source_File>  (1) 
Jnk1_ligands.mol2

>  <i_m_Source_File_Index>  (1) 
2

$$$$
18629-1
     RDKit          3D

 41 42  0  0  1  0  0  0  0  0999 V2000
    6.8292   -2.9586   -8.1487 C   0  0  0  0  0  0  0  0  0  0  0  0
    7.0404   -4.3338   -7.5108 C   0  0  0  0  0  0  0  0  0  0  0  0
    7.7995   -4.1496   -6.3183 O   0  0  0  0  0  0  0  0  0  0  0  0
    8.1772   -5.2519   -5.5710 C   0  0  0  0  0  0  0  0  0  0  0  0
    7.7891   -6.4756   -6.0234 N   0  0  0  0  0  0  0  0  0  0  0  0
    8.1169   -7.5550   -5.2991 C   0  0  0  0  0  0  0  0  0  0  0  0
    8.8592   -7.4895   -4.1305 C   0  0  0  0  0  0  0  0  0  0  0  0
    9.2580   -6.2464   -3.6752 C   0  0  0  0  0  0  0  0  0  0  0  0
    9.9850   -6.2512   -2.4918 N   0  0  0  0  0  0  0  0  0  0  0  0
    8.9185   -5.0888   -4.3947 C   0  0  0  0  0  0  0  0  0  0  0  0
    9.2950   -3.7466   -3.9655 C   0  0  0  0  0  0  0  0  0  0  0  0
    9.5902   -2.6775   -3.6324 N   0  0  0  0  0  0  0  0  0  0  0  0
    7.6662   -8.7136   -5.8948 N   0  0  0  0  0  0  0  0  0  0  0  0
    7.4075   -9.9087   -5.3546 C   0  0  0  0  0  0  0  0  0  0  0  0
    7.4876  -10.1340   -4.1485 O   0  0  0  0  0  0  0  0  0  0  0  0
    6.9747  -11.0502   -6.2870 C   0  0  0  0  0  0  0  0  0  0  0  0
    7.0159  -10.7290   -7.7814 C   0  0  0  0  0  0  0  0  0  0  0  0
    6.1451   -9.7811   -8.3348 C   0  0  0  0  0  0  0  0  0  0  0  0
    6.2264   -9.4544   -9.6901 C   0  0  0  0  0  0  0  0  0  0  0  0
    5.3206   -8.3927  -10.2817 C   0  0  0  0  0  0  0  0  0  0  0  0
    7.1538  -10.1075  -10.5037 C   0  0  0  0  0  0  0  0  0  0  0  0
    8.0082  -11.0680   -9.9630 C   0  0  0  0  0  0  0  0  0  0  0  0
    7.9422  -11.3750   -8.6047 C   0  0  0  0  0  0  0  0  0  0  0  0
    6.7130   -2.2020   -7.3588 H   0  0  0  0  0  0  0  0  0  0  0  0
    7.6992   -2.7065   -8.7729 H   0  0  0  0  0  0  0  0  0  0  0  0
    5.9237   -2.9792   -8.7729 H   0  0  0  0  0  0  0  0  0  0  0  0
    6.0679   -4.7873   -7.2690 H   0  0  0  0  0  0  0  0  0  0  0  0
    7.5717   -5.0015   -8.2049 H   0  0  0  0  0  0  0  0  0  0  0  0
    9.1244   -8.4036   -3.5791 H   0  0  0  0  0  0  0  0  0  0  0  0
   10.3180   -5.3639   -2.0883 H   0  0  0  0  0  0  0  0  0  0  0  0
   10.1913   -7.1420   -2.0177 H   0  0  0  0  0  0  0  0  0  0  0  0
    7.5042   -8.6485   -6.9099 H   0  0  0  0  0  0  0  0  0  0  0  0
    7.6403  -11.9070   -6.1057 H   0  0  0  0  0  0  0  0  0  0  0  0
    5.9196  -11.2514   -6.0496 H   0  0  0  0  0  0  0  0  0  0  0  0
    5.3933   -9.2916   -7.6983 H   0  0  0  0  0  0  0  0  0  0  0  0
    4.8388   -7.8279   -9.4699 H   0  0  0  0  0  0  0  0  0  0  0  0
    5.9162   -7.7069  -10.9022 H   0  0  0  0  0  0  0  0  0  0  0  0
    4.5496   -8.8727  -10.9022 H   0  0  0  0  0  0  0  0  0  0  0  0
    7.2109   -9.8637  -11.5748 H   0  0  0  0  0  0  0  0  0  0  0  0
    8.7345  -11.5835  -10.6085 H   0  0  0  0  0  0  0  0  0  0  0  0
    8.6216  -12.1285   -8.1795 H   0  0  0  0  0  0  0  0  0  0  0  0
  1  2  1  0
  2  3  1  0
  3  4  1  0
  4 10  2  0
  4  5  1  0
  5  6  2  0
  6  7  1  0
  6 13  1  0
  7  8  2  0
  8  9  1  0
  8 10  1  0
 10 11  1  0
 11 12  3  0
 13 14  1  0
 14 15  2  0
 14 16  1  0
 16 17  1  0
 17 23  1  0
 17 18  2  0
 18 19  1  0
 19 20  1  0
 19 21  2  0
 21 22  1  0
 22 23  2  0
  1 24  1  0
  1 25  1  0
  1 26  1  0
  2 27  1  0
  2 28  1  0
  7 29  1  0
  9 30  1  0
  9 31  1  0
 13 32  1  0
 16 33  1  0
 16 34  1  0
 18 35  1  0
 20 36  1  0
 20 37  1  0
 20 38  1  0
 21 39  1  0
 22 40  1  0
 23 41  1  0
M  END
>  <s_m_entry_id>  (2) 
1

>  <s_m_entry_name>  (2) 
Jnk1_ligands.1

>  <s_m_Source_Path>  (2) 
D:\PyChAlPr\WorkflowForMSLD\Protein_and_Ligand_Preparation

>  <s_m_Source_File>  (2) 
Jnk1_ligands.mol2

>  <i_m_Source_File_Index>  (2) 
1

$$$$
18628-1
     RDKit          3D

 41 42  0  0  1  0  0  0  0  0999 V2000
    6.9988   -3.1580   -8.3498 C   0  0  0  0  0  0  0  0  0  0  0  0
    7.2010   -4.5031   -7.6479 C   0  0  0  0  0  0  0  0  0  0  0  0
    7.8667   -4.2551   -6.4117 O   0  0  0  0  0  0  0  0  0  0  0  0
    8.2193   -5.3194   -5.5991 C   0  0  0  0  0  0  0  0  0  0  0  0
    7.9145   -6.5688   -6.0412 N   0  0  0  0  0  0  0  0  0  0  0  0
    8.2162   -7.6132   -5.2578 C   0  0  0  0  0  0  0  0  0  0  0  0
    8.8469   -7.4881   -4.0301 C   0  0  0  0  0  0  0  0  0  0  0  0
    9.1634   -6.2163   -3.5844 C   0  0  0  0  0  0  0  0  0  0  0  0
    9.7829   -6.1532   -2.3422 N   0  0  0  0  0  0  0  0  0  0  0  0
    8.8511   -5.0942   -4.3711 C   0  0  0  0  0  0  0  0  0  0  0  0
    9.1440   -3.7250   -3.9629 C   0  0  0  0  0  0  0  0  0  0  0  0
    9.3720   -2.6342   -3.6487 N   0  0  0  0  0  0  0  0  0  0  0  0
    7.8630   -8.7956   -5.8681 N   0  0  0  0  0  0  0  0  0  0  0  0
    7.6199  -10.0038   -5.3520 C   0  0  0  0  0  0  0  0  0  0  0  0
    7.6481  -10.2391   -4.1457 O   0  0  0  0  0  0  0  0  0  0  0  0
    7.2731  -11.1428   -6.3278 C   0  0  0  0  0  0  0  0  0  0  0  0
    7.1111  -10.7201   -7.8024 C   0  0  0  0  0  0  0  0  0  0  0  0
    7.9306  -11.2285   -8.8292 C   0  0  0  0  0  0  0  0  0  0  0  0
    9.0172  -12.2554   -8.5630 C   0  0  0  0  0  0  0  0  0  0  0  0
    7.7682  -10.7674  -10.1397 C   0  0  0  0  0  0  0  0  0  0  0  0
    6.8010   -9.8129  -10.4429 C   0  0  0  0  0  0  0  0  0  0  0  0
    5.9735   -9.3235   -9.4382 C   0  0  0  0  0  0  0  0  0  0  0  0
    6.1204   -9.7837   -8.1315 C   0  0  0  0  0  0  0  0  0  0  0  0
    6.8798   -2.3655   -7.5962 H   0  0  0  0  0  0  0  0  0  0  0  0
    7.8739   -2.9374   -8.9787 H   0  0  0  0  0  0  0  0  0  0  0  0
    6.0976   -3.2043   -8.9787 H   0  0  0  0  0  0  0  0  0  0  0  0
    6.2262   -4.9767   -7.4593 H   0  0  0  0  0  0  0  0  0  0  0  0
    7.7992   -5.1783   -8.2773 H   0  0  0  0  0  0  0  0  0  0  0  0
    9.0892   -8.3751   -3.4263 H   0  0  0  0  0  0  0  0  0  0  0  0
   10.0483   -5.2407   -1.9449 H   0  0  0  0  0  0  0  0  0  0  0  0
    9.9765   -7.0188   -1.8187 H   0  0  0  0  0  0  0  0  0  0  0  0
    7.7710   -8.7396   -6.8924 H   0  0  0  0  0  0  0  0  0  0  0  0
    8.0768  -11.8920   -6.2752 H   0  0  0  0  0  0  0  0  0  0  0  0
    6.2919  -11.5266   -6.0115 H   0  0  0  0  0  0  0  0  0  0  0  0
    9.1474  -12.3785   -7.4777 H   0  0  0  0  0  0  0  0  0  0  0  0
    8.7287  -13.2186   -9.0093 H   0  0  0  0  0  0  0  0  0  0  0  0
    9.9626  -11.9131   -9.0093 H   0  0  0  0  0  0  0  0  0  0  0  0
    8.4116  -11.1632  -10.9394 H   0  0  0  0  0  0  0  0  0  0  0  0
    6.6917   -9.4469  -11.4744 H   0  0  0  0  0  0  0  0  0  0  0  0
    5.2040   -8.5740   -9.6748 H   0  0  0  0  0  0  0  0  0  0  0  0
    5.4491   -9.4068   -7.3459 H   0  0  0  0  0  0  0  0  0  0  0  0
  1  2  1  0
  2  3  1  0
  3  4  1  0
  4  5  2  0
  4 10  1  0
  5  6  1  0
  6  7  2  0
  6 13  1  0
  7  8  1  0
  8  9  1  0
  8 10  2  0
 10 11  1  0
 11 12  3  0
 13 14  1  0
 14 15  2  0
 14 16  1  0
 16 17  1  0
 17 18  2  0
 17 23  1  0
 18 19  1  0
 18 20  1  0
 20 21  2  0
 21 22  1  0
 22 23  2  0
  1 24  1  0
  1 25  1  0
  1 26  1  0
  2 27  1  0
  2 28  1  0
  7 29  1  0
  9 30  1  0
  9 31  1  0
 13 32  1  0
 16 33  1  0
 16 34  1  0
 19 35  1  0
 19 36  1  0
 19 37  1  0
 20 38  1  0
 21 39  1  0
 22 40  1  0
 23 41  1  0
M  END
>  <s_m_entry_id>  (3) 
3

>  <s_m_entry_name>  (3) 
Jnk1_ligands.3

>  <s_m_Source_Path>  (3) 
D:\PyChAlPr\WorkflowForMSLD\Protein_and_Ligand_Preparation

>  <s_m_Source_File>  (3) 
Jnk1_ligands.mol2

>  <i_m_Source_File_Index>  (3) 
3

$$$$
18660-1
     RDKit          3D

 52 53  0  0  1  0  0  0  0  0999 V2000
    6.8118   -1.2065   -4.9766 C   0  0  0  0  0  0  0  0  0  0  0  0
    6.4473   -1.2739   -6.7651 S   0  0  0  0  0  6  0  0  0  0  0  0
    5.3151   -0.3711   -7.0196 O   0  0  0  0  0  0  0  0  0  0  0  0
    7.7079   -1.1033   -7.4977 O   0  0  0  0  0  0  0  0  0  0  0  0
    5.8934   -2.9961   -7.0340 C   0  0  0  0  0  0  0  0  0  0  0  0
    7.0707   -3.9249   -7.3402 C   0  0  0  0  0  0  0  0  0  0  0  0
    7.9549   -3.9123   -6.2134 O   0  0  0  0  0  0  0  0  0  0  0  0
    8.2989   -5.0780   -5.5566 C   0  0  0  0  0  0  0  0  0  0  0  0
    7.7885   -6.2286   -6.0528 N   0  0  0  0  0  0  0  0  0  0  0  0
    8.0306   -7.3683   -5.4078 C   0  0  0  0  0  0  0  0  0  0  0  0
    8.8140   -7.4483   -4.2659 C   0  0  0  0  0  0  0  0  0  0  0  0
    9.3472   -6.2737   -3.7599 C   0  0  0  0  0  0  0  0  0  0  0  0
   10.0938   -6.4018   -2.5944 N   0  0  0  0  0  0  0  0  0  0  0  0
    9.1003   -5.0510   -4.4086 C   0  0  0  0  0  0  0  0  0  0  0  0
    9.6230   -3.7771   -3.9295 C   0  0  0  0  0  0  0  0  0  0  0  0
   10.0327   -2.7602   -3.5571 N   0  0  0  0  0  0  0  0  0  0  0  0
    7.3803   -8.3951   -6.0457 N   0  0  0  0  0  0  0  0  0  0  0  0
    6.9918   -9.5745   -5.5750 C   0  0  0  0  0  0  0  0  0  0  0  0
    7.2051   -9.9515   -4.4264 O   0  0  0  0  0  0  0  0  0  0  0  0
    6.1525  -10.4286   -6.5197 C   0  0  0  0  0  0  0  0  0  0  0  0
    6.7632  -10.6199   -7.9073 C   0  0  0  0  0  0  0  0  0  0  0  0
    6.6191   -9.6334   -8.8961 C   0  0  0  0  0  0  0  0  0  0  0  0
    5.9391   -8.4799   -8.5488 O   0  0  0  0  0  0  0  0  0  0  0  0
    5.7962   -7.4308   -9.5031 C   0  0  0  0  0  0  0  0  0  0  0  0
    7.1703   -9.8642  -10.1644 C   0  0  0  0  0  0  0  0  0  0  0  0
    7.8753  -11.0386  -10.4289 C   0  0  0  0  0  0  0  0  0  0  0  0
    8.0229  -12.0191   -9.4515 C   0  0  0  0  0  0  0  0  0  0  0  0
    7.4575  -11.8006   -8.1890 C   0  0  0  0  0  0  0  0  0  0  0  0
    8.7350  -13.1468   -9.8021 O   0  0  0  0  0  0  0  0  0  0  0  0
    8.5908  -14.3248   -9.0122 C   0  0  0  0  0  0  0  0  0  0  0  0
    5.8864   -1.3776   -4.4071 H   0  0  0  0  0  0  0  0  0  0  0  0
    7.5476   -1.9839   -4.7228 H   0  0  0  0  0  0  0  0  0  0  0  0
    7.2211   -0.2175   -4.7228 H   0  0  0  0  0  0  0  0  0  0  0  0
    5.3835   -3.3529   -6.1270 H   0  0  0  0  0  0  0  0  0  0  0  0
    5.2121   -3.0077   -7.8976 H   0  0  0  0  0  0  0  0  0  0  0  0
    6.7033   -4.9471   -7.5139 H   0  0  0  0  0  0  0  0  0  0  0  0
    7.5996   -3.5836   -8.2423 H   0  0  0  0  0  0  0  0  0  0  0  0
    9.0062   -8.4147   -3.7770 H   0  0  0  0  0  0  0  0  0  0  0  0
   10.5203   -5.5699   -2.1620 H   0  0  0  0  0  0  0  0  0  0  0  0
   10.2207   -7.3286   -2.1633 H   0  0  0  0  0  0  0  0  0  0  0  0
    7.1609   -8.2255   -7.0377 H   0  0  0  0  0  0  0  0  0  0  0  0
    6.0209  -11.4201   -6.0619 H   0  0  0  0  0  0  0  0  0  0  0  0
    5.2021   -9.8944   -6.6656 H   0  0  0  0  0  0  0  0  0  0  0  0
    5.6657   -6.4729   -8.9783 H   0  0  0  0  0  0  0  0  0  0  0  0
    6.6962   -7.3837  -10.1338 H   0  0  0  0  0  0  0  0  0  0  0  0
    4.9164   -7.6261  -10.1338 H   0  0  0  0  0  0  0  0  0  0  0  0
    7.0457   -9.1127  -10.9579 H   0  0  0  0  0  0  0  0  0  0  0  0
    8.3206  -11.1920  -11.4230 H   0  0  0  0  0  0  0  0  0  0  0  0
    7.5609  -12.5685   -7.4081 H   0  0  0  0  0  0  0  0  0  0  0  0
    8.6235  -14.0575   -7.9457 H   0  0  0  0  0  0  0  0  0  0  0  0
    7.6274  -14.8039   -9.2408 H   0  0  0  0  0  0  0  0  0  0  0  0
    9.4103  -15.0221   -9.2408 H   0  0  0  0  0  0  0  0  0  0  0  0
  1  2  1  0
  2  3  2  0
  2  4  2  0
  2  5  1  0
  5  6  1  0
  6  7  1  0
  7  8  1  0
  8  9  2  0
  8 14  1  0
  9 10  1  0
 10 11  2  0
 10 17  1  0
 11 12  1  0
 12 13  1  0
 12 14  2  0
 14 15  1  0
 15 16  3  0
 17 18  1  0
 18 19  2  0
 18 20  1  0
 20 21  1  0
 21 22  2  0
 21 28  1  0
 22 23  1  0
 22 25  1  0
 23 24  1  0
 25 26  2  0
 26 27  1  0
 27 28  2  0
 27 29  1  0
 29 30  1  0
  1 31  1  0
  1 32  1  0
  1 33  1  0
  5 34  1  0
  5 35  1  0
  6 36  1  0
  6 37  1  0
 11 38  1  0
 13 39  1  0
 13 40  1  0
 17 41  1  0
 20 42  1  0
 20 43  1  0
 24 44  1  0
 24 45  1  0
 24 46  1  0
 25 47  1  0
 26 48  1  0
 28 49  1  0
 30 50  1  0
 30 51  1  0
 30 52  1  0
M  END
>  <s_m_entry_id>  (4) 
4

>  <s_m_entry_name>  (4) 
Jnk1_ligands.4

>  <s_m_Source_Path>  (4) 
D:\PyChAlPr\WorkflowForMSLD\Protein_and_Ligand_Preparation

>  <s_m_Source_File>  (4) 
Jnk1_ligands.mol2

>  <i_m_Source_File_Index>  (4) 
4

$$$$
18624-1
     RDKit          3D

 38 39  0  0  1  0  0  0  0  0999 V2000
    7.2778   -3.0403   -8.4046 C   0  0  0  0  0  0  0  0  0  0  0  0
    7.3632   -4.3948   -7.6969 C   0  0  0  0  0  0  0  0  0  0  0  0
    8.0172   -4.1930   -6.4466 O   0  0  0  0  0  0  0  0  0  0  0  0
    8.2724   -5.2773   -5.6248 C   0  0  0  0  0  0  0  0  0  0  0  0
    7.8759   -6.5024   -6.0654 N   0  0  0  0  0  0  0  0  0  0  0  0
    8.0835   -7.5625   -5.2714 C   0  0  0  0  0  0  0  0  0  0  0  0
    8.7118   -7.4772   -4.0389 C   0  0  0  0  0  0  0  0  0  0  0  0
    9.1199   -6.2328   -3.5951 C   0  0  0  0  0  0  0  0  0  0  0  0
    9.7282   -6.2156   -2.3465 N   0  0  0  0  0  0  0  0  0  0  0  0
    8.9029   -5.0942   -4.3887 C   0  0  0  0  0  0  0  0  0  0  0  0
    9.2931   -3.7505   -3.9773 C   0  0  0  0  0  0  0  0  0  0  0  0
    9.5994   -2.6800   -3.6595 N   0  0  0  0  0  0  0  0  0  0  0  0
    7.6425   -8.7253   -5.8663 N   0  0  0  0  0  0  0  0  0  0  0  0
    7.3093   -9.8987   -5.3185 C   0  0  0  0  0  0  0  0  0  0  0  0
    7.2792  -10.0920   -4.1047 O   0  0  0  0  0  0  0  0  0  0  0  0
    6.9366  -11.0564   -6.2576 C   0  0  0  0  0  0  0  0  0  0  0  0
    6.9847  -10.7197   -7.7490 C   0  0  0  0  0  0  0  0  0  0  0  0
    6.0606   -9.8261   -8.3041 C   0  0  0  0  0  0  0  0  0  0  0  0
    6.1221   -9.4984   -9.6579 C   0  0  0  0  0  0  0  0  0  0  0  0
    7.1088  -10.0631  -10.4653 C   0  0  0  0  0  0  0  0  0  0  0  0
    8.0291  -10.9590   -9.9198 C   0  0  0  0  0  0  0  0  0  0  0  0
    7.9678  -11.2869   -8.5651 C   0  0  0  0  0  0  0  0  0  0  0  0
    7.2271   -2.2373   -7.6545 H   0  0  0  0  0  0  0  0  0  0  0  0
    8.1688   -2.8985   -9.0339 H   0  0  0  0  0  0  0  0  0  0  0  0
    6.3760   -3.0116   -9.0339 H   0  0  0  0  0  0  0  0  0  0  0  0
    6.3520   -4.7943   -7.5301 H   0  0  0  0  0  0  0  0  0  0  0  0
    7.9234   -5.1148   -8.3117 H   0  0  0  0  0  0  0  0  0  0  0  0
    8.8815   -8.3769   -3.4291 H   0  0  0  0  0  0  0  0  0  0  0  0
   10.0597   -5.3258   -1.9473 H   0  0  0  0  0  0  0  0  0  0  0  0
    9.8478   -7.0926   -1.8198 H   0  0  0  0  0  0  0  0  0  0  0  0
    7.5562   -8.6838   -6.8919 H   0  0  0  0  0  0  0  0  0  0  0  0
    7.6357  -11.8850   -6.0720 H   0  0  0  0  0  0  0  0  0  0  0  0
    5.8899  -11.3096   -6.0331 H   0  0  0  0  0  0  0  0  0  0  0  0
    5.2816   -9.3801   -7.6683 H   0  0  0  0  0  0  0  0  0  0  0  0
    5.3935   -8.7955  -10.0883 H   0  0  0  0  0  0  0  0  0  0  0  0
    7.1617   -9.8023  -11.5326 H   0  0  0  0  0  0  0  0  0  0  0  0
    8.8041  -11.4073  -10.5589 H   0  0  0  0  0  0  0  0  0  0  0  0
    8.6949  -11.9934   -8.1381 H   0  0  0  0  0  0  0  0  0  0  0  0
  1  2  1  0
  2  3  1  0
  3  4  1  0
  4  5  2  0
  4 10  1  0
  5  6  1  0
  6  7  2  0
  6 13  1  0
  7  8  1  0
  8  9  1  0
  8 10  2  0
 10 11  1  0
 11 12  3  0
 13 14  1  0
 14 15  2  0
 14 16  1  0
 16 17  1  0
 17 18  2  0
 17 22  1  0
 18 19  1  0
 19 20  2  0
 20 21  1  0
 21 22  2  0
  1 23  1  0
  1 24  1  0
  1 25  1  0
  2 26  1  0
  2 27  1  0
  7 28  1  0
  9 29  1  0
  9 30  1  0
 13 31  1  0
 16 32  1  0
 16 33  1  0
 18 34  1  0
 19 35  1  0
 20 36  1  0
 21 37  1  0
 22 38  1  0
M  END
>  <s_m_entry_id>  (5) 
5

>  <s_m_entry_name>  (5) 
Jnk1_ligands.5

>  <s_m_Source_Path>  (5) 
D:\PyChAlPr\WorkflowForMSLD\Protein_and_Ligand_Preparation

>  <s_m_Source_File>  (5) 
Jnk1_ligands.mol2

>  <i_m_Source_File_Index>  (5) 
5

$$$$
18633-1
     RDKit          3D

 42 43  0  0  1  0  0  0  0  0999 V2000
    6.8609   -3.0119   -8.2065 C   0  0  0  0  0  0  0  0  0  0  0  0
    7.0765   -4.3799   -7.5549 C   0  0  0  0  0  0  0  0  0  0  0  0
    7.8064   -4.1778   -6.3472 O   0  0  0  0  0  0  0  0  0  0  0  0
    8.1813   -5.2698   -5.5837 C   0  0  0  0  0  0  0  0  0  0  0  0
    7.8212   -6.5021   -6.0363 N   0  0  0  0  0  0  0  0  0  0  0  0
    8.1454   -7.5714   -5.2958 C   0  0  0  0  0  0  0  0  0  0  0  0
    8.8593   -7.4875   -4.1110 C   0  0  0  0  0  0  0  0  0  0  0  0
    9.2300   -6.2361   -3.6559 C   0  0  0  0  0  0  0  0  0  0  0  0
    9.9284   -6.2234   -2.4556 N   0  0  0  0  0  0  0  0  0  0  0  0
    8.8914   -5.0882   -4.3912 C   0  0  0  0  0  0  0  0  0  0  0  0
    9.2371   -3.7378   -3.9619 C   0  0  0  0  0  0  0  0  0  0  0  0
    9.5076   -2.6623   -3.6292 N   0  0  0  0  0  0  0  0  0  0  0  0
    7.7243   -8.7403   -5.8926 N   0  0  0  0  0  0  0  0  0  0  0  0
    7.4871   -9.9407   -5.3533 C   0  0  0  0  0  0  0  0  0  0  0  0
    7.5466  -10.1614   -4.1453 O   0  0  0  0  0  0  0  0  0  0  0  0
    7.1126  -11.0961   -6.2944 C   0  0  0  0  0  0  0  0  0  0  0  0
    7.0685  -10.7320   -7.7786 C   0  0  0  0  0  0  0  0  0  0  0  0
    8.0446  -11.2219   -8.6493 C   0  0  0  0  0  0  0  0  0  0  0  0
    8.0193  -10.8621   -9.9965 C   0  0  0  0  0  0  0  0  0  0  0  0
    7.0277  -10.0181  -10.4958 C   0  0  0  0  0  0  0  0  0  0  0  0
    6.0435   -9.5361   -9.6187 C   0  0  0  0  0  0  0  0  0  0  0  0
    6.0661   -9.8891   -8.2703 C   0  0  0  0  0  0  0  0  0  0  0  0
    7.0983   -9.7125  -11.8384 O   0  0  0  0  0  0  0  0  0  0  0  0
    6.1072   -8.8585  -12.4042 C   0  0  0  0  0  0  0  0  0  0  0  0
    6.7405   -2.2480   -7.4242 H   0  0  0  0  0  0  0  0  0  0  0  0
    7.7308   -2.7624   -8.8319 H   0  0  0  0  0  0  0  0  0  0  0  0
    5.9564   -3.0420   -8.8319 H   0  0  0  0  0  0  0  0  0  0  0  0
    6.1050   -4.8451   -7.3315 H   0  0  0  0  0  0  0  0  0  0  0  0
    7.6320   -5.0448   -8.2326 H   0  0  0  0  0  0  0  0  0  0  0  0
    9.1244   -8.3939   -3.5470 H   0  0  0  0  0  0  0  0  0  0  0  0
   10.2398   -5.3292   -2.0503 H   0  0  0  0  0  0  0  0  0  0  0  0
   10.1351   -7.1083   -1.9706 H   0  0  0  0  0  0  0  0  0  0  0  0
    7.5687   -8.6800   -6.9090 H   0  0  0  0  0  0  0  0  0  0  0  0
    7.8536  -11.8982   -6.1616 H   0  0  0  0  0  0  0  0  0  0  0  0
    6.0904  -11.3964   -6.0209 H   0  0  0  0  0  0  0  0  0  0  0  0
    8.8325  -11.8908   -8.2729 H   0  0  0  0  0  0  0  0  0  0  0  0
    8.7931  -11.2497  -10.6755 H   0  0  0  0  0  0  0  0  0  0  0  0
    5.2496   -8.8758   -9.9976 H   0  0  0  0  0  0  0  0  0  0  0  0
    5.2924   -9.5034   -7.5901 H   0  0  0  0  0  0  0  0  0  0  0  0
    5.5404   -8.3701  -11.5979 H   0  0  0  0  0  0  0  0  0  0  0  0
    6.5945   -8.0928  -13.0257 H   0  0  0  0  0  0  0  0  0  0  0  0
    5.4219   -9.4535  -13.0257 H   0  0  0  0  0  0  0  0  0  0  0  0
  1  2  1  0
  2  3  1  0
  3  4  1  0
  4  5  2  0
  4 10  1  0
  5  6  1  0
  6  7  2  0
  6 13  1  0
  7  8  1  0
  8  9  1  0
  8 10  2  0
 10 11  1  0
 11 12  3  0
 13 14  1  0
 14 15  2  0
 14 16  1  0
 16 17  1  0
 17 18  2  0
 17 22  1  0
 18 19  1  0
 19 20  2  0
 20 21  1  0
 20 23  1  0
 21 22  2  0
 23 24  1  0
  1 25  1  0
  1 26  1  0
  1 27  1  0
  2 28  1  0
  2 29  1  0
  7 30  1  0
  9 31  1  0
  9 32  1  0
 13 33  1  0
 16 34  1  0
 16 35  1  0
 18 36  1  0
 19 37  1  0
 21 38  1  0
 22 39  1  0
 24 40  1  0
 24 41  1  0
 24 42  1  0
M  END
>  <s_m_entry_id>  (6) 
6

>  <s_m_entry_name>  (6) 
Jnk1_ligands.6

>  <s_m_Source_Path>  (6) 
D:\PyChAlPr\WorkflowForMSLD\Protein_and_Ligand_Preparation

>  <s_m_Source_File>  (6) 
Jnk1_ligands.mol2

>  <i_m_Source_File_Index>  (6) 
6

$$$$
18635-1
     RDKit          3D

 44 45  0  0  1  0  0  0  0  0999 V2000
    6.6413   -2.6151   -7.7807 C   0  0  0  0  0  0  0  0  0  0  0  0
    6.8575   -4.0329   -7.2461 C   0  0  0  0  0  0  0  0  0  0  0  0
    7.7393   -3.9484   -6.1293 O   0  0  0  0  0  0  0  0  0  0  0  0
    8.1527   -5.1068   -5.4934 C   0  0  0  0  0  0  0  0  0  0  0  0
    7.6889   -6.2878   -5.9840 N   0  0  0  0  0  0  0  0  0  0  0  0
    8.0506   -7.4195   -5.3634 C   0  0  0  0  0  0  0  0  0  0  0  0
    8.8977   -7.4519   -4.2670 C   0  0  0  0  0  0  0  0  0  0  0  0
    9.3681   -6.2494   -3.7694 C   0  0  0  0  0  0  0  0  0  0  0  0
   10.1863   -6.3433   -2.6507 N   0  0  0  0  0  0  0  0  0  0  0  0
    8.9980   -5.0392   -4.3804 C   0  0  0  0  0  0  0  0  0  0  0  0
    9.4375   -3.7341   -3.9005 C   0  0  0  0  0  0  0  0  0  0  0  0
    9.7796   -2.6930   -3.5279 N   0  0  0  0  0  0  0  0  0  0  0  0
    7.4604   -8.5054   -5.9678 N   0  0  0  0  0  0  0  0  0  0  0  0
    7.2062   -9.7267   -5.4936 C   0  0  0  0  0  0  0  0  0  0  0  0
    7.5604  -10.1299   -4.3866 O   0  0  0  0  0  0  0  0  0  0  0  0
    6.3309  -10.6119   -6.3779 C   0  0  0  0  0  0  0  0  0  0  0  0
    6.8173  -10.7227   -7.8229 C   0  0  0  0  0  0  0  0  0  0  0  0
    7.8537  -11.5943   -8.2162 C   0  0  0  0  0  0  0  0  0  0  0  0
    8.6085  -12.4861   -7.2394 C   0  0  0  0  0  0  0  0  0  0  0  0
    8.2463  -11.6304   -9.5568 C   0  0  0  0  0  0  0  0  0  0  0  0
    7.6174  -10.8270  -10.5053 C   0  0  0  0  0  0  0  0  0  0  0  0
    6.5938   -9.9636  -10.1209 C   0  0  0  0  0  0  0  0  0  0  0  0
    5.9198   -9.0823  -11.1544 C   0  0  0  0  0  0  0  0  0  0  0  0
    6.2024   -9.9127   -8.7831 C   0  0  0  0  0  0  0  0  0  0  0  0
    6.5349   -1.9173   -6.9370 H   0  0  0  0  0  0  0  0  0  0  0  0
    7.5047   -2.3191   -8.3946 H   0  0  0  0  0  0  0  0  0  0  0  0
    5.7289   -2.5899   -8.3946 H   0  0  0  0  0  0  0  0  0  0  0  0
    5.8959   -4.4647   -6.9317 H   0  0  0  0  0  0  0  0  0  0  0  0
    7.2881   -4.6763   -8.0275 H   0  0  0  0  0  0  0  0  0  0  0  0
    9.1881   -8.4071   -3.8052 H   0  0  0  0  0  0  0  0  0  0  0  0
   10.5747   -5.4903   -2.2236 H   0  0  0  0  0  0  0  0  0  0  0  0
   10.4046   -7.2660   -2.2484 H   0  0  0  0  0  0  0  0  0  0  0  0
    7.1675   -8.3510   -6.9431 H   0  0  0  0  0  0  0  0  0  0  0  0
    6.3086  -11.6217   -5.9421 H   0  0  0  0  0  0  0  0  0  0  0  0
    5.3364  -10.1430   -6.4121 H   0  0  0  0  0  0  0  0  0  0  0  0
    8.3604  -12.1930   -6.2086 H   0  0  0  0  0  0  0  0  0  0  0  0
    8.3194  -13.5349   -7.4020 H   0  0  0  0  0  0  0  0  0  0  0  0
    9.6906  -12.3745   -7.4020 H   0  0  0  0  0  0  0  0  0  0  0  0
    9.0613  -12.3010   -9.8668 H   0  0  0  0  0  0  0  0  0  0  0  0
    7.9294  -10.8743  -11.5590 H   0  0  0  0  0  0  0  0  0  0  0  0
    5.3275   -8.3076  -10.6455 H   0  0  0  0  0  0  0  0  0  0  0  0
    6.6850   -8.6043  -11.7837 H   0  0  0  0  0  0  0  0  0  0  0  0
    5.2581   -9.6955  -11.7837 H   0  0  0  0  0  0  0  0  0  0  0  0
    5.3988   -9.2259   -8.4790 H   0  0  0  0  0  0  0  0  0  0  0  0
  1  2  1  0
  2  3  1  0
  3  4  1  0
  4  5  2  0
  4 10  1  0
  5  6  1  0
  6  7  2  0
  6 13  1  0
  7  8  1  0
  8  9  1  0
  8 10  2  0
 10 11  1  0
 11 12  3  0
 13 14  1  0
 14 15  2  0
 14 16  1  0
 16 17  1  0
 17 18  2  0
 17 24  1  0
 18 19  1  0
 18 20  1  0
 20 21  2  0
 21 22  1  0
 22 23  1  0
 22 24  2  0
  1 25  1  0
  1 26  1  0
  1 27  1  0
  2 28  1  0
  2 29  1  0
  7 30  1  0
  9 31  1  0
  9 32  1  0
 13 33  1  0
 16 34  1  0
 16 35  1  0
 19 36  1  0
 19 37  1  0
 19 38  1  0
 20 39  1  0
 21 40  1  0
 23 41  1  0
 23 42  1  0
 23 43  1  0
 24 44  1  0
M  END
>  <s_m_entry_id>  (7) 
7

>  <s_m_entry_name>  (7) 
Jnk1_ligands.7

>  <s_m_Source_Path>  (7) 
D:\PyChAlPr\WorkflowForMSLD\Protein_and_Ligand_Preparation

>  <s_m_Source_File>  (7) 
Jnk1_ligands.mol2

>  <i_m_Source_File_Index>  (7) 
7

$$$$
17124-1
     RDKit          3D

 46 47  0  0  1  0  0  0  0  0999 V2000
    6.7511   -2.4780   -7.7248 C   0  0  0  0  0  0  0  0  0  0  0  0
    6.8973   -3.9083   -7.2007 C   0  0  0  0  0  0  0  0  0  0  0  0
    7.7819   -3.8741   -6.0842 O   0  0  0  0  0  0  0  0  0  0  0  0
    8.1500   -5.0564   -5.4651 C   0  0  0  0  0  0  0  0  0  0  0  0
    7.6241   -6.2109   -5.9586 N   0  0  0  0  0  0  0  0  0  0  0  0
    7.9470   -7.3661   -5.3576 C   0  0  0  0  0  0  0  0  0  0  0  0
    8.8241   -7.4433   -4.2848 C   0  0  0  0  0  0  0  0  0  0  0  0
    9.3562   -6.2686   -3.7837 C   0  0  0  0  0  0  0  0  0  0  0  0
   10.2025   -6.4106   -2.6903 N   0  0  0  0  0  0  0  0  0  0  0  0
    9.0185   -5.0372   -4.3679 C   0  0  0  0  0  0  0  0  0  0  0  0
    9.5179   -3.7597   -3.8728 C   0  0  0  0  0  0  0  0  0  0  0  0
    9.9087   -2.7410   -3.4860 N   0  0  0  0  0  0  0  0  0  0  0  0
    7.2918   -8.4259   -5.9511 N   0  0  0  0  0  0  0  0  0  0  0  0
    7.1382   -9.6886   -5.5428 C   0  0  0  0  0  0  0  0  0  0  0  0
    7.5856  -10.1430   -4.4920 O   0  0  0  0  0  0  0  0  0  0  0  0
    6.2702  -10.5742   -6.4286 C   0  0  0  0  0  0  0  0  0  0  0  0
    6.7809  -10.7026   -7.8612 C   0  0  0  0  0  0  0  0  0  0  0  0
    6.4957   -9.7117   -8.8132 C   0  0  0  0  0  0  0  0  0  0  0  0
    5.7830   -8.6042   -8.3886 O   0  0  0  0  0  0  0  0  0  0  0  0
    5.6292   -7.4877   -9.2622 C   0  0  0  0  0  0  0  0  0  0  0  0
    6.9405   -9.8951  -10.1285 C   0  0  0  0  0  0  0  0  0  0  0  0
    7.6827  -11.0216  -10.4812 C   0  0  0  0  0  0  0  0  0  0  0  0
    8.2510  -11.2101  -12.2911 Br  0  0  0  0  0  0  0  0  0  0  0  0
    7.9924  -12.0001   -9.5302 C   0  0  0  0  0  0  0  0  0  0  0  0
    7.5285  -11.8290   -8.2188 C   0  0  0  0  0  0  0  0  0  0  0  0
    8.7553  -13.0776   -9.9375 O   0  0  0  0  0  0  0  0  0  0  0  0
    8.7406  -14.2748   -9.1639 C   0  0  0  0  0  0  0  0  0  0  0  0
    6.6800   -1.7820   -6.8760 H   0  0  0  0  0  0  0  0  0  0  0  0
    7.6276   -2.2207   -8.3375 H   0  0  0  0  0  0  0  0  0  0  0  0
    5.8407   -2.4033   -8.3375 H   0  0  0  0  0  0  0  0  0  0  0  0
    5.9158   -4.2949   -6.8888 H   0  0  0  0  0  0  0  0  0  0  0  0
    7.2954   -4.5670   -7.9866 H   0  0  0  0  0  0  0  0  0  0  0  0
    9.0899   -8.4152   -3.8435 H   0  0  0  0  0  0  0  0  0  0  0  0
   10.6362   -5.5796   -2.2633 H   0  0  0  0  0  0  0  0  0  0  0  0
   10.3961   -7.3469   -2.3070 H   0  0  0  0  0  0  0  0  0  0  0  0
    6.8496   -8.2080   -6.8555 H   0  0  0  0  0  0  0  0  0  0  0  0
    6.2317  -11.5790   -5.9828 H   0  0  0  0  0  0  0  0  0  0  0  0
    5.2795  -10.0993   -6.4833 H   0  0  0  0  0  0  0  0  0  0  0  0
    5.5030   -6.5712   -8.6672 H   0  0  0  0  0  0  0  0  0  0  0  0
    6.5227   -7.3927   -9.8967 H   0  0  0  0  0  0  0  0  0  0  0  0
    4.7433   -7.6378   -9.8967 H   0  0  0  0  0  0  0  0  0  0  0  0
    6.7014   -9.1411  -10.8928 H   0  0  0  0  0  0  0  0  0  0  0  0
    7.7558  -12.5919   -7.4596 H   0  0  0  0  0  0  0  0  0  0  0  0
    8.7437  -14.0199   -8.0939 H   0  0  0  0  0  0  0  0  0  0  0  0
    7.8353  -14.8531   -9.4005 H   0  0  0  0  0  0  0  0  0  0  0  0
    9.6314  -14.8751   -9.4005 H   0  0  0  0  0  0  0  0  0  0  0  0
  1  2  1  0
  2  3  1  0
  3  4  1  0
  4  5  2  0
  4 10  1  0
  5  6  1  0
  6  7  2  0
  6 13  1  0
  7  8  1  0
  8  9  1  0
  8 10  2  0
 10 11  1  0
 11 12  3  0
 13 14  1  0
 14 15  2  0
 14 16  1  0
 16 17  1  0
 17 18  2  0
 17 25  1  0
 18 19  1  0
 18 21  1  0
 19 20  1  0
 21 22  2  0
 22 23  1  0
 22 24  1  0
 24 25  2  0
 24 26  1  0
 26 27  1  0
  1 28  1  0
  1 29  1  0
  1 30  1  0
  2 31  1  0
  2 32  1  0
  7 33  1  0
  9 34  1  0
  9 35  1  0
 13 36  1  0
 16 37  1  0
 16 38  1  0
 20 39  1  0
 20 40  1  0
 20 41  1  0
 21 42  1  0
 25 43  1  0
 27 44  1  0
 27 45  1  0
 27 46  1  0
M  END
>  <s_m_entry_id>  (8) 
8

>  <s_m_entry_name>  (8) 
Jnk1_ligands.8

>  <s_m_Source_Path>  (8) 
D:\PyChAlPr\WorkflowForMSLD\Protein_and_Ligand_Preparation

>  <s_m_Source_File>  (8) 
Jnk1_ligands.mol2

>  <i_m_Source_File_Index>  (8) 
8

$$$$
18625-1
     RDKit          3D

 38 39  0  0  1  0  0  0  0  0999 V2000
    6.6380   -2.4695   -7.6639 C   0  0  0  0  0  0  0  0  0  0  0  0
    6.8169   -3.9005   -7.1513 C   0  0  0  0  0  0  0  0  0  0  0  0
    7.7358   -3.8610   -6.0620 O   0  0  0  0  0  0  0  0  0  0  0  0
    8.1326   -5.0419   -5.4577 C   0  0  0  0  0  0  0  0  0  0  0  0
    7.6112   -6.1991   -5.9460 N   0  0  0  0  0  0  0  0  0  0  0  0
    7.9562   -7.3531   -5.3592 C   0  0  0  0  0  0  0  0  0  0  0  0
    8.8507   -7.4303   -4.3014 C   0  0  0  0  0  0  0  0  0  0  0  0
    9.3792   -6.2516   -3.8031 C   0  0  0  0  0  0  0  0  0  0  0  0
   10.2418   -6.3877   -2.7216 N   0  0  0  0  0  0  0  0  0  0  0  0
    9.0196   -5.0201   -4.3760 C   0  0  0  0  0  0  0  0  0  0  0  0
    9.5091   -3.7379   -3.8844 C   0  0  0  0  0  0  0  0  0  0  0  0
    9.8905   -2.7145   -3.5012 N   0  0  0  0  0  0  0  0  0  0  0  0
    7.2927   -8.4046   -5.9547 N   0  0  0  0  0  0  0  0  0  0  0  0
    7.1535   -9.6757   -5.5677 C   0  0  0  0  0  0  0  0  0  0  0  0
    7.6477  -10.1547   -4.5491 O   0  0  0  0  0  0  0  0  0  0  0  0
    6.2454  -10.5374   -6.4380 C   0  0  0  0  0  0  0  0  0  0  0  0
    6.7823  -10.7447   -7.8530 C   0  0  0  0  0  0  0  0  0  0  0  0
    7.7908  -11.6833   -8.1340 C   0  0  0  0  0  0  0  0  0  0  0  0
    8.4753  -12.6771   -6.8944 Cl  0  0  0  0  0  0  0  0  0  0  0  0
    8.2650  -11.8268   -9.4374 C   0  0  0  0  0  0  0  0  0  0  0  0
    7.7343  -11.0550  -10.4706 C   0  0  0  0  0  0  0  0  0  0  0  0
    6.7313  -10.1269  -10.1976 C   0  0  0  0  0  0  0  0  0  0  0  0
    6.2614   -9.9698   -8.8944 C   0  0  0  0  0  0  0  0  0  0  0  0
    6.5521   -1.7821   -6.8095 H   0  0  0  0  0  0  0  0  0  0  0  0
    7.5079   -2.1876   -8.2753 H   0  0  0  0  0  0  0  0  0  0  0  0
    5.7255   -2.4105   -8.2753 H   0  0  0  0  0  0  0  0  0  0  0  0
    5.8501   -4.2999   -6.8110 H   0  0  0  0  0  0  0  0  0  0  0  0
    7.1979   -4.5510   -7.9523 H   0  0  0  0  0  0  0  0  0  0  0  0
    9.1324   -8.4022   -3.8701 H   0  0  0  0  0  0  0  0  0  0  0  0
   10.6730   -5.5534   -2.2986 H   0  0  0  0  0  0  0  0  0  0  0  0
   10.4499   -7.3228   -2.3433 H   0  0  0  0  0  0  0  0  0  0  0  0
    6.8280   -8.1721   -6.8440 H   0  0  0  0  0  0  0  0  0  0  0  0
    6.1344  -11.5214   -5.9591 H   0  0  0  0  0  0  0  0  0  0  0  0
    5.2847  -10.0092   -6.5286 H   0  0  0  0  0  0  0  0  0  0  0  0
    9.0626  -12.5532   -9.6520 H   0  0  0  0  0  0  0  0  0  0  0  0
    8.1063  -11.1786  -11.4984 H   0  0  0  0  0  0  0  0  0  0  0  0
    6.3101   -9.5177  -11.0109 H   0  0  0  0  0  0  0  0  0  0  0  0
    5.4745   -9.2306   -8.6836 H   0  0  0  0  0  0  0  0  0  0  0  0
  1  2  1  0
  2  3  1  0
  3  4  1  0
  4  5  2  0
  4 10  1  0
  5  6  1  0
  6  7  2  0
  6 13  1  0
  7  8  1  0
  8  9  1  0
  8 10  2  0
 10 11  1  0
 11 12  3  0
 13 14  1  0
 14 15  2  0
 14 16  1  0
 16 17  1  0
 17 18  2  0
 17 23  1  0
 18 19  1  0
 18 20  1  0
 20 21  2  0
 21 22  1  0
 22 23  2  0
  1 24  1  0
  1 25  1  0
  1 26  1  0
  2 27  1  0
  2 28  1  0
  7 29  1  0
  9 30  1  0
  9 31  1  0
 13 32  1  0
 16 33  1  0
 16 34  1  0
 20 35  1  0
 21 36  1  0
 22 37  1  0
 23 38  1  0
M  END
>  <s_m_entry_id>  (9) 
9

>  <s_m_entry_name>  (9) 
Jnk1_ligands.9

>  <s_m_Source_Path>  (9) 
D:\PyChAlPr\WorkflowForMSLD\Protein_and_Ligand_Preparation

>  <s_m_Source_File>  (9) 
Jnk1_ligands.mol2

>  <i_m_Source_File_Index>  (9) 
9

$$$$
18659-1
     RDKit          3D

 50 51  0  0  1  0  0  0  0  0999 V2000
    4.6760   -2.4848   -8.8817 C   0  0  0  0  0  0  0  0  0  0  0  0
    6.0914   -2.3571   -8.9695 O   0  0  0  0  0  0  0  0  0  0  0  0
    6.7659   -2.4340   -7.7143 C   0  0  0  0  0  0  0  0  0  0  0  0
    6.9024   -3.8776   -7.1965 C   0  0  0  0  0  0  0  0  0  0  0  0
    7.7682   -3.8649   -6.0608 O   0  0  0  0  0  0  0  0  0  0  0  0
    8.1425   -5.0542   -5.4608 C   0  0  0  0  0  0  0  0  0  0  0  0
    7.6130   -6.2035   -5.9612 N   0  0  0  0  0  0  0  0  0  0  0  0
    7.9439   -7.3645   -5.3725 C   0  0  0  0  0  0  0  0  0  0  0  0
    8.8316   -7.4477   -4.3079 C   0  0  0  0  0  0  0  0  0  0  0  0
    9.3644   -6.2767   -3.7996 C   0  0  0  0  0  0  0  0  0  0  0  0
   10.2169   -6.4235   -2.7118 N   0  0  0  0  0  0  0  0  0  0  0  0
    9.0185   -5.0419   -4.3705 C   0  0  0  0  0  0  0  0  0  0  0  0
    9.5141   -3.7652   -3.8701 C   0  0  0  0  0  0  0  0  0  0  0  0
    9.8997   -2.7458   -3.4809 N   0  0  0  0  0  0  0  0  0  0  0  0
    7.2840   -8.4261   -5.9612 N   0  0  0  0  0  0  0  0  0  0  0  0
    7.1337   -9.6890   -5.5490 C   0  0  0  0  0  0  0  0  0  0  0  0
    7.5923  -10.1436   -4.5025 O   0  0  0  0  0  0  0  0  0  0  0  0
    6.2581  -10.5767   -6.4260 C   0  0  0  0  0  0  0  0  0  0  0  0
    6.7693  -10.7136   -7.8572 C   0  0  0  0  0  0  0  0  0  0  0  0
    6.4807   -9.7282   -8.8149 C   0  0  0  0  0  0  0  0  0  0  0  0
    5.7560   -8.6253   -8.3976 O   0  0  0  0  0  0  0  0  0  0  0  0
    5.5992   -7.5136   -9.2770 C   0  0  0  0  0  0  0  0  0  0  0  0
    6.9405   -9.9097  -10.1264 C   0  0  0  0  0  0  0  0  0  0  0  0
    7.7080  -11.0256  -10.4617 C   0  0  0  0  0  0  0  0  0  0  0  0
    8.0095  -11.9983   -9.5119 C   0  0  0  0  0  0  0  0  0  0  0  0
    7.5289  -11.8358   -8.2063 C   0  0  0  0  0  0  0  0  0  0  0  0
    8.7838  -13.0591   -9.9324 O   0  0  0  0  0  0  0  0  0  0  0  0
    8.7729  -14.2654   -9.1725 C   0  0  0  0  0  0  0  0  0  0  0  0
    4.3753   -2.5120   -7.8239 H   0  0  0  0  0  0  0  0  0  0  0  0
    4.1989   -1.6261   -9.3766 H   0  0  0  0  0  0  0  0  0  0  0  0
    4.3604   -3.4151   -9.3766 H   0  0  0  0  0  0  0  0  0  0  0  0
    7.7725   -2.0056   -7.8297 H   0  0  0  0  0  0  0  0  0  0  0  0
    6.1655   -1.8752   -6.9814 H   0  0  0  0  0  0  0  0  0  0  0  0
    5.9141   -4.2641   -6.9069 H   0  0  0  0  0  0  0  0  0  0  0  0
    7.3170   -4.5255   -7.9828 H   0  0  0  0  0  0  0  0  0  0  0  0
    9.1049   -8.4228   -3.8784 H   0  0  0  0  0  0  0  0  0  0  0  0
   10.6503   -5.5940   -2.2815 H   0  0  0  0  0  0  0  0  0  0  0  0
   10.4152   -7.3617   -2.3358 H   0  0  0  0  0  0  0  0  0  0  0  0
    6.8357   -8.2097   -6.8629 H   0  0  0  0  0  0  0  0  0  0  0  0
    6.2157  -11.5787   -5.9742 H   0  0  0  0  0  0  0  0  0  0  0  0
    5.2679  -10.1009   -6.4806 H   0  0  0  0  0  0  0  0  0  0  0  0
    5.4697   -6.5946   -8.6866 H   0  0  0  0  0  0  0  0  0  0  0  0
    6.4929   -7.4190   -9.9113 H   0  0  0  0  0  0  0  0  0  0  0  0
    4.7142   -7.6697   -9.9113 H   0  0  0  0  0  0  0  0  0  0  0  0
    6.6940   -9.1657  -10.8983 H   0  0  0  0  0  0  0  0  0  0  0  0
    8.0801  -11.1386  -11.4906 H   0  0  0  0  0  0  0  0  0  0  0  0
    7.7512  -12.5994   -7.4464 H   0  0  0  0  0  0  0  0  0  0  0  0
    8.7751  -14.0229   -8.0996 H   0  0  0  0  0  0  0  0  0  0  0  0
    7.8695  -14.8439   -9.4159 H   0  0  0  0  0  0  0  0  0  0  0  0
    9.6657  -14.8601   -9.4159 H   0  0  0  0  0  0  0  0  0  0  0  0
  1  2  1  0
  2  3  1  0
  3  4  1  0
  4  5  1  0
  5  6  1  0
  6  7  2  0
  6 12  1  0
  7  8  1  0
  8  9  2  0
  8 15  1  0
  9 10  1  0
 10 11  1  0
 10 12  2  0
 12 13  1  0
 13 14  3  0
 15 16  1  0
 16 17  2  0
 16 18  1  0
 18 19  1  0
 19 20  2  0
 19 26  1  0
 20 21  1  0
 20 23  1  0
 21 22  1  0
 23 24  2  0
 24 25  1  0
 25 26  2  0
 25 27  1  0
 27 28  1  0
  1 29  1  0
  1 30  1  0
  1 31  1  0
  3 32  1  0
  3 33  1  0
  4 34  1  0
  4 35  1  0
  9 36  1  0
 11 37  1  0
 11 38  1  0
 15 39  1  0
 18 40  1  0
 18 41  1  0
 22 42  1  0
 22 43  1  0
 22 44  1  0
 23 45  1  0
 24 46  1  0
 26 47  1  0
 28 48  1  0
 28 49  1  0
 28 50  1  0
M  END
>  <s_m_entry_id>  (10) 
10

>  <s_m_entry_name>  (10) 
Jnk1_ligands.10

>  <s_m_Source_Path>  (10) 
D:\PyChAlPr\WorkflowForMSLD\Protein_and_Ligand_Preparation

>  <s_m_Source_File>  (10) 
Jnk1_ligands.mol2

>  <i_m_Source_File_Index>  (10) 
10

$$$$
18637-1
     RDKit          3D

 53 54  0  0  1  0  0  0  0  0999 V2000
    6.7672   -2.5009   -7.7549 C   0  0  0  0  0  0  0  0  0  0  0  0
    6.8808   -3.9221   -7.1981 C   0  0  0  0  0  0  0  0  0  0  0  0
    7.7962   -3.8891   -6.1069 O   0  0  0  0  0  0  0  0  0  0  0  0
    8.1561   -5.0681   -5.4771 C   0  0  0  0  0  0  0  0  0  0  0  0
    7.6266   -6.2240   -5.9629 N   0  0  0  0  0  0  0  0  0  0  0  0
    7.9451   -7.3764   -5.3537 C   0  0  0  0  0  0  0  0  0  0  0  0
    8.8179   -7.4485   -4.2771 C   0  0  0  0  0  0  0  0  0  0  0  0
    9.3509   -6.2719   -3.7818 C   0  0  0  0  0  0  0  0  0  0  0  0
   10.1905   -6.4085   -2.6827 N   0  0  0  0  0  0  0  0  0  0  0  0
    9.0201   -5.0439   -4.3768 C   0  0  0  0  0  0  0  0  0  0  0  0
    9.5204   -3.7641   -3.8887 C   0  0  0  0  0  0  0  0  0  0  0  0
    9.9116   -2.7434   -3.5080 N   0  0  0  0  0  0  0  0  0  0  0  0
    7.2920   -8.4399   -5.9429 N   0  0  0  0  0  0  0  0  0  0  0  0
    7.1354   -9.6998   -5.5270 C   0  0  0  0  0  0  0  0  0  0  0  0
    7.5731  -10.1452   -4.4681 O   0  0  0  0  0  0  0  0  0  0  0  0
    6.2759  -10.5929   -6.4150 C   0  0  0  0  0  0  0  0  0  0  0  0
    6.7773  -10.7017   -7.8531 C   0  0  0  0  0  0  0  0  0  0  0  0
    6.4781   -9.7047   -8.7919 C   0  0  0  0  0  0  0  0  0  0  0  0
    5.7551   -8.6096   -8.3519 O   0  0  0  0  0  0  0  0  0  0  0  0
    5.6134   -7.4730   -9.2023 C   0  0  0  0  0  0  0  0  0  0  0  0
    6.9260   -9.8617  -10.1081 C   0  0  0  0  0  0  0  0  0  0  0  0
    7.6965  -10.9706  -10.4862 C   0  0  0  0  0  0  0  0  0  0  0  0
    8.0099  -11.9565   -9.5373 C   0  0  0  0  0  0  0  0  0  0  0  0
    7.5383  -11.8123   -8.2256 C   0  0  0  0  0  0  0  0  0  0  0  0
    8.7941  -13.0228   -9.9480 O   0  0  0  0  0  0  0  0  0  0  0  0
    8.7697  -14.2341   -9.1946 C   0  0  0  0  0  0  0  0  0  0  0  0
    8.2078  -11.1627  -11.7907 N   0  0  0  0  0  0  0  0  0  0  0  0
    8.0719  -10.4453  -12.9180 C   0  0  0  0  0  0  0  0  0  0  0  0
    7.3799   -9.4388  -13.0333 O   0  0  0  0  0  0  0  0  0  0  0  0
    8.8648  -10.9236  -14.1217 C   0  0  0  0  0  0  0  0  0  0  0  0
    6.7100   -1.7843   -6.9222 H   0  0  0  0  0  0  0  0  0  0  0  0
    7.6504   -2.2769   -8.3713 H   0  0  0  0  0  0  0  0  0  0  0  0
    5.8598   -2.4200   -8.3713 H   0  0  0  0  0  0  0  0  0  0  0  0
    5.8961   -4.2678   -6.8504 H   0  0  0  0  0  0  0  0  0  0  0  0
    7.2352   -4.6133   -7.9769 H   0  0  0  0  0  0  0  0  0  0  0  0
    9.0795   -8.4180   -3.8282 H   0  0  0  0  0  0  0  0  0  0  0  0
   10.6244   -5.5757   -2.2595 H   0  0  0  0  0  0  0  0  0  0  0  0
   10.3788   -7.3425   -2.2913 H   0  0  0  0  0  0  0  0  0  0  0  0
    6.8542   -8.2278   -6.8508 H   0  0  0  0  0  0  0  0  0  0  0  0
    6.2575  -11.6018   -5.9773 H   0  0  0  0  0  0  0  0  0  0  0  0
    5.2774  -10.1334   -6.4589 H   0  0  0  0  0  0  0  0  0  0  0  0
    5.5005   -6.5674   -8.5882 H   0  0  0  0  0  0  0  0  0  0  0  0
    6.5065   -7.3765   -9.8372 H   0  0  0  0  0  0  0  0  0  0  0  0
    4.7240   -7.5987   -9.8372 H   0  0  0  0  0  0  0  0  0  0  0  0
    6.6690   -9.1012  -10.8602 H   0  0  0  0  0  0  0  0  0  0  0  0
    7.7707  -12.5852   -7.4783 H   0  0  0  0  0  0  0  0  0  0  0  0
    8.7745  -13.9978   -8.1202 H   0  0  0  0  0  0  0  0  0  0  0  0
    7.8600  -14.8011   -9.4413 H   0  0  0  0  0  0  0  0  0  0  0  0
    9.6559  -14.8372   -9.4413 H   0  0  0  0  0  0  0  0  0  0  0  0
    8.7901  -12.0058  -11.8953 H   0  0  0  0  0  0  0  0  0  0  0  0
    9.7601  -11.4636  -13.7800 H   0  0  0  0  0  0  0  0  0  0  0  0
    8.2404  -11.5958  -14.7285 H   0  0  0  0  0  0  0  0  0  0  0  0
    9.1682  -10.0577  -14.7285 H   0  0  0  0  0  0  0  0  0  0  0  0
  1  2  1  0
  2  3  1  0
  3  4  1  0
  4  5  2  0
  4 10  1  0
  5  6  1  0
  6  7  2  0
  6 13  1  0
  7  8  1  0
  8  9  1  0
  8 10  2  0
 10 11  1  0
 11 12  3  0
 13 14  1  0
 14 15  2  0
 14 16  1  0
 16 17  1  0
 17 18  2  0
 17 24  1  0
 18 19  1  0
 18 21  1  0
 19 20  1  0
 21 22  2  0
 22 23  1  0
 22 27  1  0
 23 24  2  0
 23 25  1  0
 25 26  1  0
 27 28  1  0
 28 29  2  0
 28 30  1  0
  1 31  1  0
  1 32  1  0
  1 33  1  0
  2 34  1  0
  2 35  1  0
  7 36  1  0
  9 37  1  0
  9 38  1  0
 13 39  1  0
 16 40  1  0
 16 41  1  0
 20 42  1  0
 20 43  1  0
 20 44  1  0
 21 45  1  0
 24 46  1  0
 26 47  1  0
 26 48  1  0
 26 49  1  0
 27 50  1  0
 30 51  1  0
 30 52  1  0
 30 53  1  0
M  END
>  <s_m_entry_id>  (11) 
11

>  <s_m_entry_name>  (11) 
Jnk1_ligands.11

>  <s_m_Source_Path>  (11) 
D:\PyChAlPr\WorkflowForMSLD\Protein_and_Ligand_Preparation

>  <s_m_Source_File>  (11) 
Jnk1_ligands.mol2

>  <i_m_Source_File_Index>  (11) 
11

$$$$
18638-1
     RDKit          3D

 52 53  0  0  1  0  0  0  0  0999 V2000
    6.7358   -2.4564   -7.6962 C   0  0  0  0  0  0  0  0  0  0  0  0
    6.8844   -3.8897   -7.1807 C   0  0  0  0  0  0  0  0  0  0  0  0
    7.7754   -3.8620   -6.0691 O   0  0  0  0  0  0  0  0  0  0  0  0
    8.1470   -5.0477   -5.4588 C   0  0  0  0  0  0  0  0  0  0  0  0
    7.6184   -6.1995   -5.9561 N   0  0  0  0  0  0  0  0  0  0  0  0
    7.9449   -7.3582   -5.3640 C   0  0  0  0  0  0  0  0  0  0  0  0
    8.8278   -7.4412   -4.2961 C   0  0  0  0  0  0  0  0  0  0  0  0
    9.3622   -6.2693   -3.7909 C   0  0  0  0  0  0  0  0  0  0  0  0
   10.2143   -6.4170   -2.7024 N   0  0  0  0  0  0  0  0  0  0  0  0
    9.0214   -5.0346   -4.3663 C   0  0  0  0  0  0  0  0  0  0  0  0
    9.5240   -3.7600   -3.8670 C   0  0  0  0  0  0  0  0  0  0  0  0
    9.9175   -2.7436   -3.4770 N   0  0  0  0  0  0  0  0  0  0  0  0
    7.2872   -8.4150   -5.9610 N   0  0  0  0  0  0  0  0  0  0  0  0
    7.1323   -9.6785   -5.5555 C   0  0  0  0  0  0  0  0  0  0  0  0
    7.5818  -10.1364   -4.5072 O   0  0  0  0  0  0  0  0  0  0  0  0
    6.2607  -10.5609   -6.4399 C   0  0  0  0  0  0  0  0  0  0  0  0
    6.7815  -10.7051   -7.8663 C   0  0  0  0  0  0  0  0  0  0  0  0
    6.5092   -9.7199   -8.8274 C   0  0  0  0  0  0  0  0  0  0  0  0
    5.7994   -8.6055   -8.4149 O   0  0  0  0  0  0  0  0  0  0  0  0
    5.6132   -7.5116   -9.3108 C   0  0  0  0  0  0  0  0  0  0  0  0
    6.9595   -9.9166  -10.1386 C   0  0  0  0  0  0  0  0  0  0  0  0
    7.6963  -11.0567  -10.4768 C   0  0  0  0  0  0  0  0  0  0  0  0
    8.2285  -11.2744  -12.1803 S   0  0  0  0  0  6  0  0  0  0  0  0
    7.8709  -10.0673  -12.9433 O   0  0  0  0  0  0  0  0  0  0  0  0
    9.6239  -11.7421  -12.1875 O   0  0  0  0  0  0  0  0  0  0  0  0
    7.1714  -12.6462  -12.7953 C   0  0  0  0  0  0  0  0  0  0  0  0
    7.9864  -12.0352   -9.5166 C   0  0  0  0  0  0  0  0  0  0  0  0
    7.5178  -11.8426   -8.2100 C   0  0  0  0  0  0  0  0  0  0  0  0
    8.7203  -13.1398   -9.9040 O   0  0  0  0  0  0  0  0  0  0  0  0
    8.7004  -14.3192   -9.1041 C   0  0  0  0  0  0  0  0  0  0  0  0
    6.6642   -1.7656   -6.8432 H   0  0  0  0  0  0  0  0  0  0  0  0
    7.6116   -2.1941   -8.3080 H   0  0  0  0  0  0  0  0  0  0  0  0
    5.8249   -2.3794   -8.3080 H   0  0  0  0  0  0  0  0  0  0  0  0
    5.9046   -4.2776   -6.8654 H   0  0  0  0  0  0  0  0  0  0  0  0
    7.2778   -4.5442   -7.9724 H   0  0  0  0  0  0  0  0  0  0  0  0
    9.0961   -8.4156   -3.8617 H   0  0  0  0  0  0  0  0  0  0  0  0
   10.6498   -5.5881   -2.2731 H   0  0  0  0  0  0  0  0  0  0  0  0
   10.4102   -7.3552   -2.3253 H   0  0  0  0  0  0  0  0  0  0  0  0
    6.8447   -8.1938   -6.8644 H   0  0  0  0  0  0  0  0  0  0  0  0
    6.2076  -11.5618   -5.9868 H   0  0  0  0  0  0  0  0  0  0  0  0
    5.2752  -10.0766   -6.5051 H   0  0  0  0  0  0  0  0  0  0  0  0
    5.4560   -6.5881   -8.7342 H   0  0  0  0  0  0  0  0  0  0  0  0
    6.5054   -7.4007   -9.9446 H   0  0  0  0  0  0  0  0  0  0  0  0
    4.7346   -7.7022   -9.9446 H   0  0  0  0  0  0  0  0  0  0  0  0
    6.7316   -9.1670  -10.9107 H   0  0  0  0  0  0  0  0  0  0  0  0
    6.7486  -13.1948  -11.9407 H   0  0  0  0  0  0  0  0  0  0  0  0
    6.3550  -12.2342  -13.4067 H   0  0  0  0  0  0  0  0  0  0  0  0
    7.7778  -13.3307  -13.4067 H   0  0  0  0  0  0  0  0  0  0  0  0
    7.7331  -12.5997   -7.4416 H   0  0  0  0  0  0  0  0  0  0  0  0
    8.7051  -14.0406   -8.0399 H   0  0  0  0  0  0  0  0  0  0  0  0
    7.7924  -14.8984   -9.3274 H   0  0  0  0  0  0  0  0  0  0  0  0
    9.5884  -14.9288   -9.3274 H   0  0  0  0  0  0  0  0  0  0  0  0
  1  2  1  0
  2  3  1  0
  3  4  1  0
  4  5  2  0
  4 10  1  0
  5  6  1  0
  6  7  2  0
  6 13  1  0
  7  8  1  0
  8  9  1  0
  8 10  2  0
 10 11  1  0
 11 12  3  0
 13 14  1  0
 14 15  2  0
 14 16  1  0
 16 17  1  0
 17 18  2  0
 17 28  1  0
 18 19  1  0
 18 21  1  0
 19 20  1  0
 21 22  2  0
 22 23  1  0
 22 27  1  0
 23 24  2  0
 23 25  2  0
 23 26  1  0
 27 28  2  0
 27 29  1  0
 29 30  1  0
  1 31  1  0
  1 32  1  0
  1 33  1  0
  2 34  1  0
  2 35  1  0
  7 36  1  0
  9 37  1  0
  9 38  1  0
 13 39  1  0
 16 40  1  0
 16 41  1  0
 20 42  1  0
 20 43  1  0
 20 44  1  0
 21 45  1  0
 26 46  1  0
 26 47  1  0
 26 48  1  0
 28 49  1  0
 30 50  1  0
 30 51  1  0
 30 52  1  0
M  END
>  <s_m_entry_id>  (12) 
12

>  <s_m_entry_name>  (12) 
Jnk1_ligands.12

>  <s_m_Source_Path>  (12) 
D:\PyChAlPr\WorkflowForMSLD\Protein_and_Ligand_Preparation

>  <s_m_Source_File>  (12) 
Jnk1_ligands.mol2

>  <i_m_Source_File_Index>  (12) 
12

$$$$
18652-1
     RDKit          3D

 55 56  0  0  1  0  0  0  0  0999 V2000
    7.0481   -4.3431   -8.2623 C   0  0  0  0  0  0  0  0  0  0  0  0
    6.6650   -3.7183   -6.9145 C   0  0  0  0  0  0  0  0  0  0  0  0
    5.2961   -4.1926   -6.4059 C   0  0  0  0  0  0  0  0  0  0  0  0
    7.7106   -3.7950   -5.9335 O   0  0  0  0  0  0  0  0  0  0  0  0
    8.1424   -4.9890   -5.3765 C   0  0  0  0  0  0  0  0  0  0  0  0
    7.6275   -6.1366   -5.8815 N   0  0  0  0  0  0  0  0  0  0  0  0
    7.9790   -7.3018   -5.3328 C   0  0  0  0  0  0  0  0  0  0  0  0
    8.8808   -7.4043   -4.2843 C   0  0  0  0  0  0  0  0  0  0  0  0
    9.4150   -6.2354   -3.7673 C   0  0  0  0  0  0  0  0  0  0  0  0
   10.2865   -6.3957   -2.6964 N   0  0  0  0  0  0  0  0  0  0  0  0
    9.0529   -4.9909   -4.3126 C   0  0  0  0  0  0  0  0  0  0  0  0
    9.5662   -3.7231   -3.8063 C   0  0  0  0  0  0  0  0  0  0  0  0
    9.9701   -2.7125   -3.4104 N   0  0  0  0  0  0  0  0  0  0  0  0
    7.3140   -8.3323   -5.9596 N   0  0  0  0  0  0  0  0  0  0  0  0
    7.1109   -9.5885   -5.5651 C   0  0  0  0  0  0  0  0  0  0  0  0
    7.5274  -10.0576   -4.5091 O   0  0  0  0  0  0  0  0  0  0  0  0
    6.2218  -10.4352   -6.4676 C   0  0  0  0  0  0  0  0  0  0  0  0
    6.7377  -10.5667   -7.8978 C   0  0  0  0  0  0  0  0  0  0  0  0
    6.4682   -9.5716   -8.8498 C   0  0  0  0  0  0  0  0  0  0  0  0
    5.7648   -8.4575   -8.4275 O   0  0  0  0  0  0  0  0  0  0  0  0
    5.3781   -7.4652   -9.3759 C   0  0  0  0  0  0  0  0  0  0  0  0
    6.9221   -9.7552  -10.1622 C   0  0  0  0  0  0  0  0  0  0  0  0
    7.6512  -10.8960  -10.5128 C   0  0  0  0  0  0  0  0  0  0  0  0
    8.1936  -11.0935  -12.2154 S   0  0  0  0  0  6  0  0  0  0  0  0
    9.5920  -11.5521  -12.2180 O   0  0  0  0  0  0  0  0  0  0  0  0
    7.8333   -9.8807  -12.9682 O   0  0  0  0  0  0  0  0  0  0  0  0
    7.1485  -12.4647  -12.8524 C   0  0  0  0  0  0  0  0  0  0  0  0
    7.9280  -11.8896   -9.5649 C   0  0  0  0  0  0  0  0  0  0  0  0
    7.4607  -11.7076   -8.2567 C   0  0  0  0  0  0  0  0  0  0  0  0
    8.6502  -12.9978   -9.9637 O   0  0  0  0  0  0  0  0  0  0  0  0
    8.5881  -14.1940   -9.1914 C   0  0  0  0  0  0  0  0  0  0  0  0
    7.6160   -5.2691   -8.0889 H   0  0  0  0  0  0  0  0  0  0  0  0
    6.1359   -4.5736   -8.8321 H   0  0  0  0  0  0  0  0  0  0  0  0
    7.6672   -3.6345   -8.8321 H   0  0  0  0  0  0  0  0  0  0  0  0
    6.5441   -2.6416   -7.1046 H   0  0  0  0  0  0  0  0  0  0  0  0
    5.2938   -4.1934   -5.3059 H   0  0  0  0  0  0  0  0  0  0  0  0
    4.5129   -3.5134   -6.7738 H   0  0  0  0  0  0  0  0  0  0  0  0
    5.1010   -5.2107   -6.7738 H   0  0  0  0  0  0  0  0  0  0  0  0
    9.1637   -8.3853   -3.8750 H   0  0  0  0  0  0  0  0  0  0  0  0
   10.7229   -5.5712   -2.2597 H   0  0  0  0  0  0  0  0  0  0  0  0
   10.4958   -7.3389   -2.3394 H   0  0  0  0  0  0  0  0  0  0  0  0
    6.9106   -8.0945   -6.8770 H   0  0  0  0  0  0  0  0  0  0  0  0
    6.1466  -11.4428   -6.0327 H   0  0  0  0  0  0  0  0  0  0  0  0
    5.2485   -9.9259   -6.5251 H   0  0  0  0  0  0  0  0  0  0  0  0
    5.0282   -6.5675   -8.8452 H   0  0  0  0  0  0  0  0  0  0  0  0
    6.2407   -7.2053  -10.0070 H   0  0  0  0  0  0  0  0  0  0  0  0
    4.5670   -7.8576  -10.0070 H   0  0  0  0  0  0  0  0  0  0  0  0
    6.7028   -8.9939  -10.9253 H   0  0  0  0  0  0  0  0  0  0  0  0
    6.7221  -13.0241  -12.0067 H   0  0  0  0  0  0  0  0  0  0  0  0
    6.3346  -12.0509  -13.4659 H   0  0  0  0  0  0  0  0  0  0  0  0
    7.7633  -13.1397  -13.4659 H   0  0  0  0  0  0  0  0  0  0  0  0
    7.6666  -12.4770   -7.4980 H   0  0  0  0  0  0  0  0  0  0  0  0
    8.6013  -13.9405   -8.1211 H   0  0  0  0  0  0  0  0  0  0  0  0
    7.6607  -14.7358   -9.4286 H   0  0  0  0  0  0  0  0  0  0  0  0
    9.4545  -14.8289   -9.4286 H   0  0  0  0  0  0  0  0  0  0  0  0
  1  2  1  0
  2  3  1  0
  2  4  1  0
  4  5  1  0
  5  6  2  0
  5 11  1  0
  6  7  1  0
  7  8  2  0
  7 14  1  0
  8  9  1  0
  9 10  1  0
  9 11  2  0
 11 12  1  0
 12 13  3  0
 14 15  1  0
 15 16  2  0
 15 17  1  0
 17 18  1  0
 18 19  2  0
 18 29  1  0
 19 20  1  0
 19 22  1  0
 20 21  1  0
 22 23  2  0
 23 24  1  0
 23 28  1  0
 24 25  2  0
 24 26  2  0
 24 27  1  0
 28 29  2  0
 28 30  1  0
 30 31  1  0
  1 32  1  0
  1 33  1  0
  1 34  1  0
  2 35  1  0
  3 36  1  0
  3 37  1  0
  3 38  1  0
  8 39  1  0
 10 40  1  0
 10 41  1  0
 14 42  1  0
 17 43  1  0
 17 44  1  0
 21 45  1  0
 21 46  1  0
 21 47  1  0
 22 48  1  0
 27 49  1  0
 27 50  1  0
 27 51  1  0
 29 52  1  0
 31 53  1  0
 31 54  1  0
 31 55  1  0
M  END
>  <s_m_entry_id>  (13) 
13

>  <s_m_entry_name>  (13) 
Jnk1_ligands.13

>  <s_m_Source_Path>  (13) 
D:\PyChAlPr\WorkflowForMSLD\Protein_and_Ligand_Preparation

>  <s_m_Source_File>  (13) 
Jnk1_ligands.mol2

>  <i_m_Source_File_Index>  (13) 
13

$$$$
18627-1
     RDKit          3D

 38 39  0  0  1  0  0  0  0  0999 V2000
    7.1945   -2.9554   -8.3139 C   0  0  0  0  0  0  0  0  0  0  0  0
    7.2911   -4.3239   -7.6353 C   0  0  0  0  0  0  0  0  0  0  0  0
    7.9822   -4.1497   -6.4012 O   0  0  0  0  0  0  0  0  0  0  0  0
    8.2544   -5.2502   -5.6070 C   0  0  0  0  0  0  0  0  0  0  0  0
    7.8341   -6.4653   -6.0556 N   0  0  0  0  0  0  0  0  0  0  0  0
    8.0587   -7.5392   -5.2848 C   0  0  0  0  0  0  0  0  0  0  0  0
    8.7297   -7.4787   -4.0733 C   0  0  0  0  0  0  0  0  0  0  0  0
    9.1618   -6.2451   -3.6226 C   0  0  0  0  0  0  0  0  0  0  0  0
    9.8122   -6.2536   -2.3953 N   0  0  0  0  0  0  0  0  0  0  0  0
    8.9263   -5.0921   -4.3890 C   0  0  0  0  0  0  0  0  0  0  0  0
    9.3400   -3.7587   -3.9666 C   0  0  0  0  0  0  0  0  0  0  0  0
    9.6651   -2.6966   -3.6395 N   0  0  0  0  0  0  0  0  0  0  0  0
    7.5849   -8.6893   -5.8806 N   0  0  0  0  0  0  0  0  0  0  0  0
    7.2569   -9.8639   -5.3313 C   0  0  0  0  0  0  0  0  0  0  0  0
    7.2637  -10.0668   -4.1190 O   0  0  0  0  0  0  0  0  0  0  0  0
    6.8396  -11.0126   -6.2604 C   0  0  0  0  0  0  0  0  0  0  0  0
    6.9579  -10.7224   -7.7564 C   0  0  0  0  0  0  0  0  0  0  0  0
    6.0792   -9.8277   -8.3809 C   0  0  0  0  0  0  0  0  0  0  0  0
    6.2065   -9.5562   -9.7441 C   0  0  0  0  0  0  0  0  0  0  0  0
    7.2086  -10.1785  -10.4874 C   0  0  0  0  0  0  0  0  0  0  0  0
    7.3785   -9.8379  -12.1681 Cl  0  0  0  0  0  0  0  0  0  0  0  0
    8.0812  -11.0736   -9.8712 C   0  0  0  0  0  0  0  0  0  0  0  0
    7.9577  -11.3464   -8.5086 C   0  0  0  0  0  0  0  0  0  0  0  0
    7.1389   -2.1689   -7.5469 H   0  0  0  0  0  0  0  0  0  0  0  0
    8.0834   -2.7937   -8.9413 H   0  0  0  0  0  0  0  0  0  0  0  0
    6.2916   -2.9202   -8.9413 H   0  0  0  0  0  0  0  0  0  0  0  0
    6.2824   -4.7202   -7.4468 H   0  0  0  0  0  0  0  0  0  0  0  0
    7.8282   -5.0355   -8.2796 H   0  0  0  0  0  0  0  0  0  0  0  0
    8.9138   -8.3897   -3.4850 H   0  0  0  0  0  0  0  0  0  0  0  0
   10.1636   -5.3732   -1.9925 H   0  0  0  0  0  0  0  0  0  0  0  0
    9.9431   -7.1404   -1.8879 H   0  0  0  0  0  0  0  0  0  0  0  0
    7.4656   -8.6356   -6.9023 H   0  0  0  0  0  0  0  0  0  0  0  0
    7.4745  -11.8813   -6.0320 H   0  0  0  0  0  0  0  0  0  0  0  0
    5.7700  -11.1838   -6.0687 H   0  0  0  0  0  0  0  0  0  0  0  0
    5.2870   -9.3380   -7.7956 H   0  0  0  0  0  0  0  0  0  0  0  0
    5.5167   -8.8516  -10.2317 H   0  0  0  0  0  0  0  0  0  0  0  0
    8.8688  -11.5660  -10.4603 H   0  0  0  0  0  0  0  0  0  0  0  0
    8.6479  -12.0535   -8.0253 H   0  0  0  0  0  0  0  0  0  0  0  0
  1  2  1  0
  2  3  1  0
  3  4  1  0
  4  5  2  0
  4 10  1  0
  5  6  1  0
  6  7  2  0
  6 13  1  0
  7  8  1  0
  8  9  1  0
  8 10  2  0
 10 11  1  0
 11 12  3  0
 13 14  1  0
 14 15  2  0
 14 16  1  0
 16 17  1  0
 17 18  2  0
 17 23  1  0
 18 19  1  0
 19 20  2  0
 20 21  1  0
 20 22  1  0
 22 23  2  0
  1 24  1  0
  1 25  1  0
  1 26  1  0
  2 27  1  0
  2 28  1  0
  7 29  1  0
  9 30  1  0
  9 31  1  0
 13 32  1  0
 16 33  1  0
 16 34  1  0
 18 35  1  0
 19 36  1  0
 22 37  1  0
 23 38  1  0
M  END
>  <s_m_entry_id>  (14) 
14

>  <s_m_entry_name>  (14) 
Jnk1_ligands.14

>  <s_m_Source_Path>  (14) 
D:\PyChAlPr\WorkflowForMSLD\Protein_and_Ligand_Preparation

>  <s_m_Source_File>  (14) 
Jnk1_ligands.mol2

>  <i_m_Source_File_Index>  (14) 
14

$$$$
18658-1
     RDKit          3D

 47 48  0  0  1  0  0  0  0  0999 V2000
    5.2445   -2.2852   -8.1664 O   0  0  0  0  0  0  0  0  0  0  0  0
    6.4156   -2.3755   -7.3698 C   0  0  0  0  0  0  0  0  0  0  0  0
    6.7424   -3.8356   -7.0203 C   0  0  0  0  0  0  0  0  0  0  0  0
    7.8553   -3.8558   -6.1235 O   0  0  0  0  0  0  0  0  0  0  0  0
    8.2238   -5.0495   -5.5273 C   0  0  0  0  0  0  0  0  0  0  0  0
    7.6694   -6.1886   -6.0231 N   0  0  0  0  0  0  0  0  0  0  0  0
    7.9493   -7.3512   -5.4141 C   0  0  0  0  0  0  0  0  0  0  0  0
    8.8016   -7.4486   -4.3229 C   0  0  0  0  0  0  0  0  0  0  0  0
    9.3625   -6.2876   -3.8197 C   0  0  0  0  0  0  0  0  0  0  0  0
   10.1663   -6.4434   -2.6970 N   0  0  0  0  0  0  0  0  0  0  0  0
    9.0840   -5.0514   -4.4242 C   0  0  0  0  0  0  0  0  0  0  0  0
    9.6171   -3.7866   -3.9317 C   0  0  0  0  0  0  0  0  0  0  0  0
   10.0345   -2.7775   -3.5479 N   0  0  0  0  0  0  0  0  0  0  0  0
    7.2742   -8.3960   -6.0130 N   0  0  0  0  0  0  0  0  0  0  0  0
    7.0390   -9.6376   -5.5792 C   0  0  0  0  0  0  0  0  0  0  0  0
    7.4070  -10.0800   -4.4925 O   0  0  0  0  0  0  0  0  0  0  0  0
    6.1802  -10.5086   -6.4896 C   0  0  0  0  0  0  0  0  0  0  0  0
    6.7694  -10.7035   -7.8840 C   0  0  0  0  0  0  0  0  0  0  0  0
    6.6004   -9.7229   -8.8746 C   0  0  0  0  0  0  0  0  0  0  0  0
    5.9133   -8.5738   -8.5243 O   0  0  0  0  0  0  0  0  0  0  0  0
    5.8691   -7.4764   -9.4339 C   0  0  0  0  0  0  0  0  0  0  0  0
    7.1338   -9.9555  -10.1499 C   0  0  0  0  0  0  0  0  0  0  0  0
    7.8519  -11.1215  -10.4173 C   0  0  0  0  0  0  0  0  0  0  0  0
    8.0299  -12.0930   -9.4357 C   0  0  0  0  0  0  0  0  0  0  0  0
    7.4783  -11.8762   -8.1666 C   0  0  0  0  0  0  0  0  0  0  0  0
    8.7596  -13.2084   -9.7889 O   0  0  0  0  0  0  0  0  0  0  0  0
    8.6257  -14.3951   -9.0100 C   0  0  0  0  0  0  0  0  0  0  0  0
    4.4498   -2.2239   -7.5792 H   0  0  0  0  0  0  0  0  0  0  0  0
    7.2607   -1.9422   -7.9248 H   0  0  0  0  0  0  0  0  0  0  0  0
    6.2416   -1.8252   -6.4334 H   0  0  0  0  0  0  0  0  0  0  0  0
    5.8713   -4.3046   -6.5395 H   0  0  0  0  0  0  0  0  0  0  0  0
    6.9895   -4.3930   -7.9359 H   0  0  0  0  0  0  0  0  0  0  0  0
    9.0260   -8.4252   -3.8690 H   0  0  0  0  0  0  0  0  0  0  0  0
   10.6168   -5.6224   -2.2681 H   0  0  0  0  0  0  0  0  0  0  0  0
   10.3116   -7.3799   -2.2936 H   0  0  0  0  0  0  0  0  0  0  0  0
    6.8897   -8.1840   -6.9448 H   0  0  0  0  0  0  0  0  0  0  0  0
    6.0663  -11.4965   -6.0192 H   0  0  0  0  0  0  0  0  0  0  0  0
    5.2176   -9.9914   -6.6160 H   0  0  0  0  0  0  0  0  0  0  0  0
    5.8311   -6.5333   -8.8690 H   0  0  0  0  0  0  0  0  0  0  0  0
    6.7685   -7.4885  -10.0671 H   0  0  0  0  0  0  0  0  0  0  0  0
    4.9736   -7.5609  -10.0671 H   0  0  0  0  0  0  0  0  0  0  0  0
    6.9849   -9.2121  -10.9469 H   0  0  0  0  0  0  0  0  0  0  0  0
    8.2834  -11.2754  -11.4174 H   0  0  0  0  0  0  0  0  0  0  0  0
    7.6040  -12.6374   -7.3825 H   0  0  0  0  0  0  0  0  0  0  0  0
    8.6548  -14.1372   -7.9410 H   0  0  0  0  0  0  0  0  0  0  0  0
    7.6671  -14.8811   -9.2440 H   0  0  0  0  0  0  0  0  0  0  0  0
    9.4520  -15.0824   -9.2440 H   0  0  0  0  0  0  0  0  0  0  0  0
  1  2  1  0
  2  3  1  0
  3  4  1  0
  4  5  1  0
  5  6  2  0
  5 11  1  0
  6  7  1  0
  7  8  2  0
  7 14  1  0
  8  9  1  0
  9 10  1  0
  9 11  2  0
 11 12  1  0
 12 13  3  0
 14 15  1  0
 15 16  2  0
 15 17  1  0
 17 18  1  0
 18 19  2  0
 18 25  1  0
 19 20  1  0
 19 22  1  0
 20 21  1  0
 22 23  2  0
 23 24  1  0
 24 25  2  0
 24 26  1  0
 26 27  1  0
  1 28  1  0
  2 29  1  0
  2 30  1  0
  3 31  1  0
  3 32  1  0
  8 33  1  0
 10 34  1  0
 10 35  1  0
 14 36  1  0
 17 37  1  0
 17 38  1  0
 21 39  1  0
 21 40  1  0
 21 41  1  0
 22 42  1  0
 23 43  1  0
 25 44  1  0
 27 45  1  0
 27 46  1  0
 27 47  1  0
M  END
>  <s_m_entry_id>  (15) 
15

>  <s_m_entry_name>  (15) 
Jnk1_ligands.15

>  <s_m_Source_Path>  (15) 
D:\PyChAlPr\WorkflowForMSLD\Protein_and_Ligand_Preparation

>  <s_m_Source_File>  (15) 
Jnk1_ligands.mol2

>  <i_m_Source_File_Index>  (15) 
15

$$$$
18630-1
     RDKit          3D

 41 42  0  0  1  0  0  0  0  0999 V2000
    6.8776   -3.0274   -8.2239 C   0  0  0  0  0  0  0  0  0  0  0  0
    7.0893   -4.3934   -7.5666 C   0  0  0  0  0  0  0  0  0  0  0  0
    7.8127   -4.1870   -6.3557 O   0  0  0  0  0  0  0  0  0  0  0  0
    8.1848   -5.2762   -5.5867 C   0  0  0  0  0  0  0  0  0  0  0  0
    7.8297   -6.5103   -6.0378 N   0  0  0  0  0  0  0  0  0  0  0  0
    8.1511   -7.5773   -5.2924 C   0  0  0  0  0  0  0  0  0  0  0  0
    8.8567   -7.4886   -4.1029 C   0  0  0  0  0  0  0  0  0  0  0  0
    9.2224   -6.2349   -3.6490 C   0  0  0  0  0  0  0  0  0  0  0  0
    9.9125   -6.2167   -2.4440 N   0  0  0  0  0  0  0  0  0  0  0  0
    8.8868   -5.0898   -4.3902 C   0  0  0  0  0  0  0  0  0  0  0  0
    9.2267   -3.7372   -3.9636 C   0  0  0  0  0  0  0  0  0  0  0  0
    9.4922   -2.6597   -3.6332 N   0  0  0  0  0  0  0  0  0  0  0  0
    7.7366   -8.7481   -5.8902 N   0  0  0  0  0  0  0  0  0  0  0  0
    7.5035   -9.9507   -5.3542 C   0  0  0  0  0  0  0  0  0  0  0  0
    7.5629  -10.1742   -4.1466 O   0  0  0  0  0  0  0  0  0  0  0  0
    7.1332  -11.1046   -6.2989 C   0  0  0  0  0  0  0  0  0  0  0  0
    7.0717  -10.7301   -7.7799 C   0  0  0  0  0  0  0  0  0  0  0  0
    8.0344  -11.2180   -8.6672 C   0  0  0  0  0  0  0  0  0  0  0  0
    7.9986  -10.8487  -10.0119 C   0  0  0  0  0  0  0  0  0  0  0  0
    7.0024   -9.9880  -10.4790 C   0  0  0  0  0  0  0  0  0  0  0  0
    6.9717   -9.5797  -11.9386 C   0  0  0  0  0  0  0  0  0  0  0  0
    6.0325   -9.5081   -9.5969 C   0  0  0  0  0  0  0  0  0  0  0  0
    6.0678   -9.8772   -8.2532 C   0  0  0  0  0  0  0  0  0  0  0  0
    6.7587   -2.2601   -7.4447 H   0  0  0  0  0  0  0  0  0  0  0  0
    7.7485   -2.7826   -8.8496 H   0  0  0  0  0  0  0  0  0  0  0  0
    5.9734   -3.0577   -8.8496 H   0  0  0  0  0  0  0  0  0  0  0  0
    6.1166   -4.8577   -7.3469 H   0  0  0  0  0  0  0  0  0  0  0  0
    7.6482   -5.0608   -8.2390 H   0  0  0  0  0  0  0  0  0  0  0  0
    9.1192   -8.3928   -3.5342 H   0  0  0  0  0  0  0  0  0  0  0  0
   10.2195   -5.3204   -2.0397 H   0  0  0  0  0  0  0  0  0  0  0  0
   10.1174   -7.0995   -1.9545 H   0  0  0  0  0  0  0  0  0  0  0  0
    7.5826   -8.6871   -6.9068 H   0  0  0  0  0  0  0  0  0  0  0  0
    7.8843  -11.8992   -6.1784 H   0  0  0  0  0  0  0  0  0  0  0  0
    6.1173  -11.4192   -6.0179 H   0  0  0  0  0  0  0  0  0  0  0  0
    8.8222  -11.8948   -8.3047 H   0  0  0  0  0  0  0  0  0  0  0  0
    8.7576  -11.2367  -10.7071 H   0  0  0  0  0  0  0  0  0  0  0  0
    6.8896   -8.4852  -12.0116 H   0  0  0  0  0  0  0  0  0  0  0  0
    7.8973   -9.9117  -12.4317 H   0  0  0  0  0  0  0  0  0  0  0  0
    6.1061  -10.0461  -12.4317 H   0  0  0  0  0  0  0  0  0  0  0  0
    5.2401   -8.8384   -9.9624 H   0  0  0  0  0  0  0  0  0  0  0  0
    5.3025   -9.4962   -7.5610 H   0  0  0  0  0  0  0  0  0  0  0  0
  1  2  1  0
  2  3  1  0
  3  4  1  0
  4  5  2  0
  4 10  1  0
  5  6  1  0
  6  7  2  0
  6 13  1  0
  7  8  1  0
  8  9  1  0
  8 10  2  0
 10 11  1  0
 11 12  3  0
 13 14  1  0
 14 15  2  0
 14 16  1  0
 16 17  1  0
 17 18  2  0
 17 23  1  0
 18 19  1  0
 19 20  2  0
 20 21  1  0
 20 22  1  0
 22 23  2  0
  1 24  1  0
  1 25  1  0
  1 26  1  0
  2 27  1  0
  2 28  1  0
  7 29  1  0
  9 30  1  0
  9 31  1  0
 13 32  1  0
 16 33  1  0
 16 34  1  0
 18 35  1  0
 19 36  1  0
 21 37  1  0
 21 38  1  0
 21 39  1  0
 22 40  1  0
 23 41  1  0
M  END
>  <s_m_entry_id>  (16) 
16

>  <s_m_entry_name>  (16) 
Jnk1_ligands.16

>  <s_m_Source_Path>  (16) 
D:\PyChAlPr\WorkflowForMSLD\Protein_and_Ligand_Preparation

>  <s_m_Source_File>  (16) 
Jnk1_ligands.mol2

>  <i_m_Source_File_Index>  (16) 
16

$$$$
18639-1
     RDKit          3D

 49 50  0  0  1  0  0  0  0  0999 V2000
    6.9925   -3.9067   -8.2187 C   0  0  0  0  0  0  0  0  0  0  0  0
    6.5718   -3.7253   -6.7587 C   0  0  0  0  0  0  0  0  0  0  0  0
    7.7250   -3.7768   -5.9193 O   0  0  0  0  0  0  0  0  0  0  0  0
    8.1632   -4.9861   -5.4066 C   0  0  0  0  0  0  0  0  0  0  0  0
    7.6195   -6.1221   -5.9233 N   0  0  0  0  0  0  0  0  0  0  0  0
    7.9574   -7.2976   -5.3737 C   0  0  0  0  0  0  0  0  0  0  0  0
    8.8621   -7.4133   -4.3276 C   0  0  0  0  0  0  0  0  0  0  0  0
    9.4144   -6.2569   -3.8052 C   0  0  0  0  0  0  0  0  0  0  0  0
   10.2668   -6.4320   -2.7221 N   0  0  0  0  0  0  0  0  0  0  0  0
    9.0775   -5.0070   -4.3485 C   0  0  0  0  0  0  0  0  0  0  0  0
    9.6017   -3.7468   -3.8349 C   0  0  0  0  0  0  0  0  0  0  0  0
   10.0113   -2.7409   -3.4346 N   0  0  0  0  0  0  0  0  0  0  0  0
    7.2744   -8.3338   -5.9786 N   0  0  0  0  0  0  0  0  0  0  0  0
    7.0843   -9.5935   -5.5758 C   0  0  0  0  0  0  0  0  0  0  0  0
    7.5189  -10.0643   -4.5271 O   0  0  0  0  0  0  0  0  0  0  0  0
    6.1944  -10.4522   -6.4660 C   0  0  0  0  0  0  0  0  0  0  0  0
    6.7275  -10.6082   -7.8867 C   0  0  0  0  0  0  0  0  0  0  0  0
    6.4758   -9.6281   -8.8538 C   0  0  0  0  0  0  0  0  0  0  0  0
    5.7626   -8.5095   -8.4581 O   0  0  0  0  0  0  0  0  0  0  0  0
    5.6200   -7.4076   -9.3524 C   0  0  0  0  0  0  0  0  0  0  0  0
    6.9608   -9.8282  -10.1513 C   0  0  0  0  0  0  0  0  0  0  0  0
    7.7288  -10.9548  -10.4916 C   0  0  0  0  0  0  0  0  0  0  0  0
    8.2437  -11.0820  -11.8819 N   0  0  0  0  0  4  0  0  0  0  0  0
    9.1918  -11.8255  -12.1141 O   0  0  0  0  0  0  0  0  0  0  0  0
    7.7142  -10.4068  -12.7608 O   0  0  0  0  0  0  0  0  0  0  0  0
    7.9850  -11.9299   -9.5054 C   0  0  0  0  0  0  0  0  0  0  0  0
    7.4728  -11.7414   -8.2144 C   0  0  0  0  0  0  0  0  0  0  0  0
    8.7491  -13.0335   -9.8341 O   0  0  0  0  0  0  0  0  0  0  0  0
    8.6051  -14.2424   -9.0916 C   0  0  0  0  0  0  0  0  0  0  0  0
    8.0020   -4.3419   -8.2581 H   0  0  0  0  0  0  0  0  0  0  0  0
    6.2834   -4.5791   -8.7238 H   0  0  0  0  0  0  0  0  0  0  0  0
    6.9946   -2.9295   -8.7238 H   0  0  0  0  0  0  0  0  0  0  0  0
    6.0748   -2.7513   -6.6391 H   0  0  0  0  0  0  0  0  0  0  0  0
    5.8771   -4.5299   -6.4756 H   0  0  0  0  0  0  0  0  0  0  0  0
    9.1334   -8.3998   -3.9236 H   0  0  0  0  0  0  0  0  0  0  0  0
   10.7144   -5.6155   -2.2818 H   0  0  0  0  0  0  0  0  0  0  0  0
   10.4512   -7.3783   -2.3596 H   0  0  0  0  0  0  0  0  0  0  0  0
    6.8431   -8.0984   -6.8838 H   0  0  0  0  0  0  0  0  0  0  0  0
    6.1096  -11.4514   -6.0139 H   0  0  0  0  0  0  0  0  0  0  0  0
    5.2214   -9.9443   -6.5386 H   0  0  0  0  0  0  0  0  0  0  0  0
    5.4998   -6.4794   -8.7744 H   0  0  0  0  0  0  0  0  0  0  0  0
    6.5157   -7.3314   -9.9863 H   0  0  0  0  0  0  0  0  0  0  0  0
    4.7343   -7.5620   -9.9863 H   0  0  0  0  0  0  0  0  0  0  0  0
    6.7343   -9.0820  -10.9271 H   0  0  0  0  0  0  0  0  0  0  0  0
    9.5376  -11.9131  -13.0376 H   0  0  0  0  0  0  0  0  0  0  0  0
    7.6623  -12.5028   -7.4435 H   0  0  0  0  0  0  0  0  0  0  0  0
    8.6320  -14.0171   -8.0153 H   0  0  0  0  0  0  0  0  0  0  0  0
    7.6443  -14.7152   -9.3434 H   0  0  0  0  0  0  0  0  0  0  0  0
    9.4280  -14.9276   -9.3434 H   0  0  0  0  0  0  0  0  0  0  0  0
  1  2  1  0
  2  3  1  0
  3  4  1  0
  4  5  2  0
  4 10  1  0
  5  6  1  0
  6  7  2  0
  6 13  1  0
  7  8  1  0
  8  9  1  0
  8 10  2  0
 10 11  1  0
 11 12  3  0
 13 14  1  0
 14 15  2  0
 14 16  1  0
 16 17  1  0
 17 18  2  0
 17 27  1  0
 18 19  1  0
 18 21  1  0
 19 20  1  0
 21 22  2  0
 22 23  1  0
 22 26  1  0
 23 24  1  0
 23 25  2  0
 26 27  2  0
 26 28  1  0
 28 29  1  0
  1 30  1  0
  1 31  1  0
  1 32  1  0
  2 33  1  0
  2 34  1  0
  7 35  1  0
  9 36  1  0
  9 37  1  0
 13 38  1  0
 16 39  1  0
 16 40  1  0
 20 41  1  0
 20 42  1  0
 20 43  1  0
 21 44  1  0
 24 45  1  0
 27 46  1  0
 29 47  1  0
 29 48  1  0
 29 49  1  0
M  CHG  1  23   1
M  END
>  <s_m_entry_id>  (17) 
17

>  <s_m_entry_name>  (17) 
Jnk1_ligands.17

>  <s_m_Source_Path>  (17) 
D:\PyChAlPr\WorkflowForMSLD\Protein_and_Ligand_Preparation

>  <s_m_Source_File>  (17) 
Jnk1_ligands.mol2

>  <i_m_Source_File_Index>  (17) 
17

$$$$
18631-1
     RDKit          3D

 42 43  0  0  1  0  0  0  0  0999 V2000
    6.7803   -2.5236   -7.7836 C   0  0  0  0  0  0  0  0  0  0  0  0
    6.9202   -3.9476   -7.2404 C   0  0  0  0  0  0  0  0  0  0  0  0
    7.7929   -3.9003   -6.1153 O   0  0  0  0  0  0  0  0  0  0  0  0
    8.1552   -5.0756   -5.4797 C   0  0  0  0  0  0  0  0  0  0  0  0
    7.6344   -6.2355   -5.9653 N   0  0  0  0  0  0  0  0  0  0  0  0
    7.9523   -7.3843   -5.3488 C   0  0  0  0  0  0  0  0  0  0  0  0
    8.8194   -7.4494   -4.2676 C   0  0  0  0  0  0  0  0  0  0  0  0
    9.3455   -6.2693   -3.7743 C   0  0  0  0  0  0  0  0  0  0  0  0
   10.1808   -6.4003   -2.6714 N   0  0  0  0  0  0  0  0  0  0  0  0
    9.0124   -5.0442   -4.3741 C   0  0  0  0  0  0  0  0  0  0  0  0
    9.5043   -3.7611   -3.8864 C   0  0  0  0  0  0  0  0  0  0  0  0
    9.8889   -2.7378   -3.5056 N   0  0  0  0  0  0  0  0  0  0  0  0
    7.3052   -8.4527   -5.9344 N   0  0  0  0  0  0  0  0  0  0  0  0
    7.1472   -9.7102   -5.5125 C   0  0  0  0  0  0  0  0  0  0  0  0
    7.5754  -10.1496   -4.4468 O   0  0  0  0  0  0  0  0  0  0  0  0
    6.2967  -10.6083   -6.4042 C   0  0  0  0  0  0  0  0  0  0  0  0
    6.7894  -10.6968   -7.8474 C   0  0  0  0  0  0  0  0  0  0  0  0
    6.4791   -9.6896   -8.7772 C   0  0  0  0  0  0  0  0  0  0  0  0
    5.7604   -8.5986   -8.3224 O   0  0  0  0  0  0  0  0  0  0  0  0
    5.6639   -7.4366   -9.1429 C   0  0  0  0  0  0  0  0  0  0  0  0
    6.9074   -9.8378  -10.1046 C   0  0  0  0  0  0  0  0  0  0  0  0
    7.6623  -10.9449  -10.4903 C   0  0  0  0  0  0  0  0  0  0  0  0
    7.9884  -11.9233   -9.5550 C   0  0  0  0  0  0  0  0  0  0  0  0
    7.5482  -11.8041   -8.2392 C   0  0  0  0  0  0  0  0  0  0  0  0
    6.7108   -1.8161   -6.9442 H   0  0  0  0  0  0  0  0  0  0  0  0
    7.6586   -2.2778   -8.3986 H   0  0  0  0  0  0  0  0  0  0  0  0
    5.8709   -2.4534   -8.3986 H   0  0  0  0  0  0  0  0  0  0  0  0
    5.9352   -4.3298   -6.9343 H   0  0  0  0  0  0  0  0  0  0  0  0
    7.3262   -4.6159   -8.0140 H   0  0  0  0  0  0  0  0  0  0  0  0
    9.0821   -8.4163   -3.8137 H   0  0  0  0  0  0  0  0  0  0  0  0
   10.6102   -5.5650   -2.2484 H   0  0  0  0  0  0  0  0  0  0  0  0
   10.3706   -7.3326   -2.2769 H   0  0  0  0  0  0  0  0  0  0  0  0
    6.8731   -8.2471   -6.8464 H   0  0  0  0  0  0  0  0  0  0  0  0
    6.2972  -11.6215   -5.9758 H   0  0  0  0  0  0  0  0  0  0  0  0
    5.2914  -10.1632   -6.4379 H   0  0  0  0  0  0  0  0  0  0  0  0
    5.5896   -6.5430   -8.5058 H   0  0  0  0  0  0  0  0  0  0  0  0
    6.5588   -7.3608   -9.7780 H   0  0  0  0  0  0  0  0  0  0  0  0
    4.7687   -7.5096   -9.7780 H   0  0  0  0  0  0  0  0  0  0  0  0
    6.6449   -9.0722  -10.8495 H   0  0  0  0  0  0  0  0  0  0  0  0
    7.9999  -11.0451  -11.5324 H   0  0  0  0  0  0  0  0  0  0  0  0
    8.5941  -12.7910   -9.8556 H   0  0  0  0  0  0  0  0  0  0  0  0
    7.7984  -12.5842   -7.5051 H   0  0  0  0  0  0  0  0  0  0  0  0
  1  2  1  0
  2  3  1  0
  3  4  1  0
  4  5  2  0
  4 10  1  0
  5  6  1  0
  6  7  2  0
  6 13  1  0
  7  8  1  0
  8  9  1  0
  8 10  2  0
 10 11  1  0
 11 12  3  0
 13 14  1  0
 14 15  2  0
 14 16  1  0
 16 17  1  0
 17 18  2  0
 17 24  1  0
 18 19  1  0
 18 21  1  0
 19 20  1  0
 21 22  2  0
 22 23  1  0
 23 24  2  0
  1 25  1  0
  1 26  1  0
  1 27  1  0
  2 28  1  0
  2 29  1  0
  7 30  1  0
  9 31  1  0
  9 32  1  0
 13 33  1  0
 16 34  1  0
 16 35  1  0
 20 36  1  0
 20 37  1  0
 20 38  1  0
 21 39  1  0
 22 40  1  0
 23 41  1  0
 24 42  1  0
M  END
>  <s_m_entry_id>  (18) 
18

>  <s_m_entry_name>  (18) 
Jnk1_ligands.18

>  <s_m_Source_Path>  (18) 
D:\PyChAlPr\WorkflowForMSLD\Protein_and_Ligand_Preparation

>  <s_m_Source_File>  (18) 
Jnk1_ligands.mol2

>  <i_m_Source_File_Index>  (18) 
18

$$$$
18632-1
     RDKit          3D

 42 43  0  0  1  0  0  0  0  0999 V2000
    5.9455   -4.4620   -7.5277 C   0  0  0  0  0  0  0  0  0  0  0  0
    7.4605   -4.3170   -7.7264 C   0  0  0  0  0  0  0  0  0  0  0  0
    8.1263   -4.1360   -6.4737 O   0  0  0  0  0  0  0  0  0  0  0  0
    8.3784   -5.2193   -5.6480 C   0  0  0  0  0  0  0  0  0  0  0  0
    8.0133   -6.4467   -6.1028 N   0  0  0  0  0  0  0  0  0  0  0  0
    8.1969   -7.5041   -5.3045 C   0  0  0  0  0  0  0  0  0  0  0  0
    8.7807   -7.4216   -4.0521 C   0  0  0  0  0  0  0  0  0  0  0  0
    9.1702   -6.1758   -3.5961 C   0  0  0  0  0  0  0  0  0  0  0  0
    9.7370   -6.1617   -2.3293 N   0  0  0  0  0  0  0  0  0  0  0  0
    8.9737   -5.0356   -4.3944 C   0  0  0  0  0  0  0  0  0  0  0  0
    9.3491   -3.6914   -3.9709 C   0  0  0  0  0  0  0  0  0  0  0  0
    9.6445   -2.6206   -3.6434 N   0  0  0  0  0  0  0  0  0  0  0  0
    7.7725   -8.6595   -5.9169 N   0  0  0  0  0  0  0  0  0  0  0  0
    7.3404   -9.8037   -5.3809 C   0  0  0  0  0  0  0  0  0  0  0  0
    7.2294   -9.9763   -4.1692 O   0  0  0  0  0  0  0  0  0  0  0  0
    6.9534  -10.9465   -6.3337 C   0  0  0  0  0  0  0  0  0  0  0  0
    7.0411  -10.6022   -7.8204 C   0  0  0  0  0  0  0  0  0  0  0  0
    8.1308  -11.0330   -8.5854 C   0  0  0  0  0  0  0  0  0  0  0  0
    8.1943  -10.7854   -9.9537 C   0  0  0  0  0  0  0  0  0  0  0  0
    9.2892  -11.2955  -10.6159 O   0  0  0  0  0  0  0  0  0  0  0  0
    9.4243  -11.0519  -12.0116 C   0  0  0  0  0  0  0  0  0  0  0  0
    7.1554  -10.0620  -10.5584 C   0  0  0  0  0  0  0  0  0  0  0  0
    6.0754   -9.6065   -9.8009 C   0  0  0  0  0  0  0  0  0  0  0  0
    6.0174   -9.8789   -8.4351 C   0  0  0  0  0  0  0  0  0  0  0  0
    5.7172   -4.4839   -6.4519 H   0  0  0  0  0  0  0  0  0  0  0  0
    5.4312   -3.6090   -7.9944 H   0  0  0  0  0  0  0  0  0  0  0  0
    5.6023   -5.3971   -7.9944 H   0  0  0  0  0  0  0  0  0  0  0  0
    7.8482   -5.2247   -8.2121 H   0  0  0  0  0  0  0  0  0  0  0  0
    7.6489   -3.4338   -8.3544 H   0  0  0  0  0  0  0  0  0  0  0  0
    8.9304   -8.3213   -3.4373 H   0  0  0  0  0  0  0  0  0  0  0  0
   10.0538   -5.2727   -1.9167 H   0  0  0  0  0  0  0  0  0  0  0  0
    9.8407   -7.0403   -1.8017 H   0  0  0  0  0  0  0  0  0  0  0  0
    7.7907   -8.6396   -6.9466 H   0  0  0  0  0  0  0  0  0  0  0  0
    7.6251  -11.7957   -6.1393 H   0  0  0  0  0  0  0  0  0  0  0  0
    5.8961  -11.1726   -6.1310 H   0  0  0  0  0  0  0  0  0  0  0  0
    8.9522  -11.5773   -8.0965 H   0  0  0  0  0  0  0  0  0  0  0  0
    9.9524  -10.0997  -12.1681 H   0  0  0  0  0  0  0  0  0  0  0  0
    9.9980  -11.8694  -12.4727 H   0  0  0  0  0  0  0  0  0  0  0  0
    8.4271  -10.9982  -12.4727 H   0  0  0  0  0  0  0  0  0  0  0  0
    7.1923   -9.8523  -11.6375 H   0  0  0  0  0  0  0  0  0  0  0  0
    5.2698   -9.0324  -10.2818 H   0  0  0  0  0  0  0  0  0  0  0  0
    5.1632   -9.5231   -7.8404 H   0  0  0  0  0  0  0  0  0  0  0  0
  1  2  1  0
  2  3  1  0
  3  4  1  0
  4  5  2  0
  4 10  1  0
  5  6  1  0
  6  7  2  0
  6 13  1  0
  7  8  1  0
  8  9  1  0
  8 10  2  0
 10 11  1  0
 11 12  3  0
 13 14  1  0
 14 15  2  0
 14 16  1  0
 16 17  1  0
 17 18  2  0
 17 24  1  0
 18 19  1  0
 19 20  1  0
 19 22  2  0
 20 21  1  0
 22 23  1  0
 23 24  2  0
  1 25  1  0
  1 26  1  0
  1 27  1  0
  2 28  1  0
  2 29  1  0
  7 30  1  0
  9 31  1  0
  9 32  1  0
 13 33  1  0
 16 34  1  0
 16 35  1  0
 18 36  1  0
 21 37  1  0
 21 38  1  0
 21 39  1  0
 22 40  1  0
 23 41  1  0
 24 42  1  0
M  END
>  <s_m_entry_id>  (19) 
19

>  <s_m_entry_name>  (19) 
Jnk1_ligands.19

>  <s_m_Source_Path>  (19) 
D:\PyChAlPr\WorkflowForMSLD\Protein_and_Ligand_Preparation

>  <s_m_Source_File>  (19) 
Jnk1_ligands.mol2

>  <i_m_Source_File_Index>  (19) 
19

$$$$
18636-1
     RDKit          3D

 38 39  0  0  1  0  0  0  0  0999 V2000
    6.6345   -2.4517   -7.6440 C   0  0  0  0  0  0  0  0  0  0  0  0
    6.8140   -3.8849   -7.1377 C   0  0  0  0  0  0  0  0  0  0  0  0
    7.7363   -3.8505   -6.0513 O   0  0  0  0  0  0  0  0  0  0  0  0
    8.1326   -5.0333   -5.4506 C   0  0  0  0  0  0  0  0  0  0  0  0
    7.6089   -6.1891   -5.9413 N   0  0  0  0  0  0  0  0  0  0  0  0
    7.9536   -7.3441   -5.3565 C   0  0  0  0  0  0  0  0  0  0  0  0
    8.8476   -7.4248   -4.2983 C   0  0  0  0  0  0  0  0  0  0  0  0
    9.3790   -6.2474   -3.7987 C   0  0  0  0  0  0  0  0  0  0  0  0
   10.2427   -6.3852   -2.7179 N   0  0  0  0  0  0  0  0  0  0  0  0
    9.0216   -5.0146   -4.3704 C   0  0  0  0  0  0  0  0  0  0  0  0
    9.5166   -3.7339   -3.8798 C   0  0  0  0  0  0  0  0  0  0  0  0
    9.9025   -2.7118   -3.4978 N   0  0  0  0  0  0  0  0  0  0  0  0
    7.2888   -8.3910   -5.9581 N   0  0  0  0  0  0  0  0  0  0  0  0
    7.1504   -9.6652   -5.5827 C   0  0  0  0  0  0  0  0  0  0  0  0
    7.6527  -10.1533   -4.5734 O   0  0  0  0  0  0  0  0  0  0  0  0
    6.2341  -10.5195   -6.4523 C   0  0  0  0  0  0  0  0  0  0  0  0
    6.7751  -10.7488   -7.8620 C   0  0  0  0  0  0  0  0  0  0  0  0
    7.7778  -11.6987   -8.1256 C   0  0  0  0  0  0  0  0  0  0  0  0
    8.5271  -12.7815   -6.7461 Br  0  0  0  0  0  0  0  0  0  0  0  0
    8.2585  -11.8631   -9.4245 C   0  0  0  0  0  0  0  0  0  0  0  0
    7.7415  -11.0978  -10.4693 C   0  0  0  0  0  0  0  0  0  0  0  0
    6.7479  -10.1564  -10.2142 C   0  0  0  0  0  0  0  0  0  0  0  0
    6.0517   -9.1043  -11.6373 Br  0  0  0  0  0  0  0  0  0  0  0  0
    6.2692   -9.9810   -8.9174 C   0  0  0  0  0  0  0  0  0  0  0  0
    6.5488   -1.7680   -6.7866 H   0  0  0  0  0  0  0  0  0  0  0  0
    7.5039   -2.1669   -8.2547 H   0  0  0  0  0  0  0  0  0  0  0  0
    5.7216   -2.3902   -8.2547 H   0  0  0  0  0  0  0  0  0  0  0  0
    5.8480   -4.2849   -6.7961 H   0  0  0  0  0  0  0  0  0  0  0  0
    7.1922   -4.5324   -7.9426 H   0  0  0  0  0  0  0  0  0  0  0  0
    9.1268   -8.3978   -3.8678 H   0  0  0  0  0  0  0  0  0  0  0  0
   10.6753   -5.5516   -2.2948 H   0  0  0  0  0  0  0  0  0  0  0  0
   10.4500   -7.3207   -2.3402 H   0  0  0  0  0  0  0  0  0  0  0  0
    6.8213   -8.1508   -6.8439 H   0  0  0  0  0  0  0  0  0  0  0  0
    6.1039  -11.4974   -5.9657 H   0  0  0  0  0  0  0  0  0  0  0  0
    5.2835   -9.9755   -6.5541 H   0  0  0  0  0  0  0  0  0  0  0  0
    9.0496  -12.6004   -9.6258 H   0  0  0  0  0  0  0  0  0  0  0  0
    8.1182  -11.2376  -11.4933 H   0  0  0  0  0  0  0  0  0  0  0  0
    5.4870   -9.2328   -8.7214 H   0  0  0  0  0  0  0  0  0  0  0  0
  1  2  1  0
  2  3  1  0
  3  4  1  0
  4  5  2  0
  4 10  1  0
  5  6  1  0
  6  7  2  0
  6 13  1  0
  7  8  1  0
  8  9  1  0
  8 10  2  0
 10 11  1  0
 11 12  3  0
 13 14  1  0
 14 15  2  0
 14 16  1  0
 16 17  1  0
 17 18  2  0
 17 24  1  0
 18 19  1  0
 18 20  1  0
 20 21  2  0
 21 22  1  0
 22 23  1  0
 22 24  2  0
  1 25  1  0
  1 26  1  0
  1 27  1  0
  2 28  1  0
  2 29  1  0
  7 30  1  0
  9 31  1  0
  9 32  1  0
 13 33  1  0
 16 34  1  0
 16 35  1  0
 20 36  1  0
 21 37  1  0
 24 38  1  0
M  END
>  <s_m_entry_id>  (20) 
20

>  <s_m_entry_name>  (20) 
Jnk1_ligands.20

>  <s_m_Source_Path>  (20) 
D:\PyChAlPr\WorkflowForMSLD\Protein_and_Ligand_Preparation

>  <s_m_Source_File>  (20) 
Jnk1_ligands.mol2

>  <i_m_Source_File_Index>  (20) 
20

$$$$
18626-1
     RDKit          3D

 38 39  0  0  1  0  0  0  0  0999 V2000
    6.7019   -2.6677   -7.8667 C   0  0  0  0  0  0  0  0  0  0  0  0
    6.8965   -4.0784   -7.3056 C   0  0  0  0  0  0  0  0  0  0  0  0
    7.7562   -3.9817   -6.1732 O   0  0  0  0  0  0  0  0  0  0  0  0
    8.1543   -5.1321   -5.5138 C   0  0  0  0  0  0  0  0  0  0  0  0
    7.6928   -6.3195   -5.9929 N   0  0  0  0  0  0  0  0  0  0  0  0
    8.0415   -7.4426   -5.3494 C   0  0  0  0  0  0  0  0  0  0  0  0
    8.8796   -7.4601   -4.2455 C   0  0  0  0  0  0  0  0  0  0  0  0
    9.3448   -6.2522   -3.7589 C   0  0  0  0  0  0  0  0  0  0  0  0
   10.1487   -6.3350   -2.6296 N   0  0  0  0  0  0  0  0  0  0  0  0
    8.9822   -5.0501   -4.3887 C   0  0  0  0  0  0  0  0  0  0  0  0
    9.4091   -3.7396   -3.9133 C   0  0  0  0  0  0  0  0  0  0  0  0
    9.7408   -2.6942   -3.5435 N   0  0  0  0  0  0  0  0  0  0  0  0
    7.4443   -8.5355   -5.9366 N   0  0  0  0  0  0  0  0  0  0  0  0
    7.2595   -9.7743   -5.4711 C   0  0  0  0  0  0  0  0  0  0  0  0
    7.6603  -10.1777   -4.3814 O   0  0  0  0  0  0  0  0  0  0  0  0
    6.4082  -10.6951   -6.3388 C   0  0  0  0  0  0  0  0  0  0  0  0
    6.8084  -10.7051   -7.8076 C   0  0  0  0  0  0  0  0  0  0  0  0
    7.8352  -11.5453   -8.2462 C   0  0  0  0  0  0  0  0  0  0  0  0
    8.2273  -11.5353   -9.5829 C   0  0  0  0  0  0  0  0  0  0  0  0
    9.5240  -12.5442  -10.1064 Cl  0  0  0  0  0  0  0  0  0  0  0  0
    7.5819  -10.6979  -10.4921 C   0  0  0  0  0  0  0  0  0  0  0  0
    6.5485   -9.8624  -10.0637 C   0  0  0  0  0  0  0  0  0  0  0  0
    6.1640   -9.8641   -8.7225 C   0  0  0  0  0  0  0  0  0  0  0  0
    6.6034   -1.9531   -7.0362 H   0  0  0  0  0  0  0  0  0  0  0  0
    7.5710   -2.3953   -8.4836 H   0  0  0  0  0  0  0  0  0  0  0  0
    5.7916   -2.6407   -8.4836 H   0  0  0  0  0  0  0  0  0  0  0  0
    5.9256   -4.4983   -7.0038 H   0  0  0  0  0  0  0  0  0  0  0  0
    7.3374   -4.7378   -8.0677 H   0  0  0  0  0  0  0  0  0  0  0  0
    9.1669   -8.4092   -3.7694 H   0  0  0  0  0  0  0  0  0  0  0  0
   10.5339   -5.4780   -2.2077 H   0  0  0  0  0  0  0  0  0  0  0  0
   10.3598   -7.2535   -2.2139 H   0  0  0  0  0  0  0  0  0  0  0  0
    7.0820   -8.3719   -6.8868 H   0  0  0  0  0  0  0  0  0  0  0  0
    6.4986  -11.7196   -5.9486 H   0  0  0  0  0  0  0  0  0  0  0  0
    5.3774  -10.3139   -6.2920 H   0  0  0  0  0  0  0  0  0  0  0  0
    8.3357  -12.2171   -7.5334 H   0  0  0  0  0  0  0  0  0  0  0  0
    7.8875  -10.6955  -11.5487 H   0  0  0  0  0  0  0  0  0  0  0  0
    6.0385   -9.2041  -10.7823 H   0  0  0  0  0  0  0  0  0  0  0  0
    5.3526   -9.2033   -8.3834 H   0  0  0  0  0  0  0  0  0  0  0  0
  1  2  1  0
  2  3  1  0
  3  4  1  0
  4  5  2  0
  4 10  1  0
  5  6  1  0
  6  7  2  0
  6 13  1  0
  7  8  1  0
  8  9  1  0
  8 10  2  0
 10 11  1  0
 11 12  3  0
 13 14  1  0
 14 15  2  0
 14 16  1  0
 16 17  1  0
 17 18  2  0
 17 23  1  0
 18 19  1  0
 19 20  1  0
 19 21  2  0
 21 22  1  0
 22 23  2  0
  1 24  1  0
  1 25  1  0
  1 26  1  0
  2 27  1  0
  2 28  1  0
  7 29  1  0
  9 30  1  0
  9 31  1  0
 13 32  1  0
 16 33  1  0
 16 34  1  0
 18 35  1  0
 21 36  1  0
 22 37  1  0
 23 38  1  0
M  END
>  <s_m_entry_id>  (21) 
21

>  <s_m_entry_name>  (21) 
Jnk1_ligands.21

>  <s_m_Source_Path>  (21) 
D:\PyChAlPr\WorkflowForMSLD\Protein_and_Ligand_Preparation

>  <s_m_Source_File>  (21) 
Jnk1_ligands.mol2

>  <i_m_Source_File_Index>  (21) 
21

$$$$
refligand
     RDKit          3D

 46 47  0  0  1  0  0  0  0  0999 V2000
    6.9370   -9.8520  -10.2360 C   0  0  0  0  0  0  0  0  0  0  0  0
    6.4610   -9.6570   -8.8890 C   0  0  0  0  0  0  0  0  0  0  0  0
    6.7220  -10.6690   -7.8990 C   0  0  0  0  0  0  0  0  0  0  0  0
    7.4370  -11.8480   -8.2710 C   0  0  0  0  0  0  0  0  0  0  0  0
    7.9130  -12.0610   -9.5930 C   0  0  0  0  0  0  0  0  0  0  0  0
    7.6580  -11.0380  -10.6030 C   0  0  0  0  0  0  0  0  0  0  0  0
    6.2450  -10.5070   -6.4640 C   0  0  0  0  0  0  0  0  0  0  0  0
    7.2650   -9.7170   -5.6400 C   0  0  0  0  0  0  0  0  0  0  0  0
    7.1100   -8.3740   -5.7640 N   0  0  0  0  0  0  0  0  0  0  0  0
    7.7910   -7.3200   -5.2090 C   0  0  0  0  0  0  0  0  0  0  0  0
    8.0920  -10.3060   -4.9700 O   0  0  0  0  0  0  0  0  0  0  0  0
    7.6980   -6.1830   -5.9580 N   0  0  0  0  0  0  0  0  0  0  0  0
    8.3160   -5.0150   -5.5440 C   0  0  0  0  0  0  0  0  0  0  0  0
    9.0640   -4.9660   -4.3340 C   0  0  0  0  0  0  0  0  0  0  0  0
    9.1690   -6.1550   -3.5390 C   0  0  0  0  0  0  0  0  0  0  0  0
    8.5290   -7.3410   -3.9830 C   0  0  0  0  0  0  0  0  0  0  0  0
    8.6070  -13.2380   -9.9050 O   0  0  0  0  0  0  0  0  0  0  0  0
   10.0020  -13.1690   -9.6260 C   0  0  0  0  0  0  0  0  0  0  0  0
    5.7380   -8.5170   -8.4510 O   0  0  0  0  0  0  0  0  0  0  0  0
    6.2740   -7.2340   -8.7520 C   0  0  0  0  0  0  0  0  0  0  0  0
    9.8670   -6.1900   -2.3670 N   0  0  0  0  0  0  0  0  0  0  0  0
    9.6950   -3.7240   -3.9280 C   0  0  0  0  0  0  0  0  0  0  0  0
    8.2190   -3.8440   -6.3210 O   0  0  0  0  0  0  0  0  0  0  0  0
    6.9040   -3.3690   -6.5820 C   0  0  0  0  0  0  0  0  0  0  0  0
    6.4190   -3.6940   -8.0120 C   0  0  0  0  0  0  0  0  0  0  0  0
   10.1750   -2.7160   -3.6180 N   0  0  0  0  0  0  0  0  0  0  0  0
    6.7445   -9.0793  -10.9949 H   0  0  0  0  0  0  0  0  0  0  0  0
    7.6257  -12.6176   -7.5081 H   0  0  0  0  0  0  0  0  0  0  0  0
    8.0147  -11.1746  -11.6346 H   0  0  0  0  0  0  0  0  0  0  0  0
    5.2850   -9.9700   -6.4612 H   0  0  0  0  0  0  0  0  0  0  0  0
    6.1258  -11.5047   -6.0164 H   0  0  0  0  0  0  0  0  0  0  0  0
    6.3403   -8.0952   -6.3891 H   0  0  0  0  0  0  0  0  0  0  0  0
    8.5993   -8.2659   -3.3917 H   0  0  0  0  0  0  0  0  0  0  0  0
   10.1582  -13.1613   -8.5372 H   0  0  0  0  0  0  0  0  0  0  0  0
   10.5069  -14.0433  -10.0627 H   0  0  0  0  0  0  0  0  0  0  0  0
   10.4182  -12.2492  -10.0627 H   0  0  0  0  0  0  0  0  0  0  0  0
    6.4967   -6.7009   -7.8160 H   0  0  0  0  0  0  0  0  0  0  0  0
    7.1986   -7.3508   -9.3364 H   0  0  0  0  0  0  0  0  0  0  0  0
    5.5411   -6.6583   -9.3364 H   0  0  0  0  0  0  0  0  0  0  0  0
    9.9189   -7.0640   -1.8244 H   0  0  0  0  0  0  0  0  0  0  0  0
   10.3420   -5.3425   -2.0249 H   0  0  0  0  0  0  0  0  0  0  0  0
    6.2137   -3.8347   -5.8632 H   0  0  0  0  0  0  0  0  0  0  0  0
    6.9232   -2.2738   -6.4814 H   0  0  0  0  0  0  0  0  0  0  0  0
    5.5062   -4.3056   -7.9595 H   0  0  0  0  0  0  0  0  0  0  0  0
    6.2027   -2.7578   -8.5475 H   0  0  0  0  0  0  0  0  0  0  0  0
    7.2027   -4.2500   -8.5475 H   0  0  0  0  0  0  0  0  0  0  0  0
  1  6  2  0
  1  2  1  0
  2  3  2  0
  2 19  1  0
  3  4  1  0
  3  7  1  0
  4  5  2  0
  5  6  1  0
  5 17  1  0
  7  8  1  0
  8 11  2  0
  8  9  1  0
  9 10  1  0
 10 16  1  0
 10 12  2  0
 12 13  1  0
 13 14  2  0
 13 23  1  0
 14 22  1  0
 14 15  1  0
 15 21  1  0
 15 16  2  0
 17 18  1  0
 19 20  1  0
 22 26  3  0
 23 24  1  0
 24 25  1  0
  1 27  1  0
  4 28  1  0
  6 29  1  0
  7 30  1  0
  7 31  1  0
  9 32  1  0
 16 33  1  0
 18 34  1  0
 18 35  1  0
 18 36  1  0
 20 37  1  0
 20 38  1  0
 20 39  1  0
 21 40  1  0
 21 41  1  0
 24 42  1  0
 24 43  1  0
 25 44  1  0
 25 45  1  0
 25 46  1  0
M  END
>  <s_m_entry_id>  (22) 
22

>  <s_m_entry_name>  (22) 
Jnk1_ligands.22

>  <s_m_Source_Path>  (22) 
D:\PyChAlPr\WorkflowForMSLD\Protein_and_Ligand_Preparation

>  <s_m_Source_File>  (22) 
Jnk1_ligands.mol2

>  <i_m_Source_File_Index>  (22) 
22

$$$$
