@<TRIPOS>MOLECULE
CAT-4m
48   51    1
SMALL
USER_CHARGES


@<TRIPOS>ATOM
      1 C1          2.1551    5.6151   -2.4033 C.3       1 SUB         0.0000 
      2 C2          2.8883    6.3265   -3.5016 C.ar      1 SUB         0.0000 
      3 C3          2.7328    7.7012   -3.6707 C.ar      1 SUB         0.0000 
      4 N4          3.3758    8.3860   -4.6499 N.ar      1 SUB         0.0000 
      5 C5          4.1920    7.6843   -5.4789 C.ar      1 SUB         0.0000 
      6 C6          4.3958    6.3094   -5.3698 C.ar      1 SUB         0.0000 
      7 C7          5.3110    5.5930   -6.3180 C.ar      1 SUB         0.0000 
      8 C8          6.4190    6.2460   -6.9010 C.ar      1 SUB         0.0000 
      9 C9          7.2860    5.5680   -7.7770 C.ar      1 SUB         0.0000 
     10 C10         7.0420    4.2290   -8.1280 C.ar      1 SUB         0.0000 
     11 C11         5.9270    3.5490   -7.5840 C.ar      1 SUB         0.0000 
     12 C12         5.5880    2.0970   -7.9680 C.3       1 SUB         0.0000 
     13 C13         6.6812    1.3546   -8.7738 C.ar      1 SUB         0.0000 
     14 C14         6.6871    1.2594  -10.1863 C.ar      1 SUB         0.0000 
     15 C15         7.6827    0.5240  -10.8606 C.ar      1 SUB         0.0000 
     16 C16         8.7093   -0.1053  -10.1381 C.ar      1 SUB         0.0000 
     17 C17         8.7414    0.0061   -8.7428 C.ar      1 SUB         0.0000 
     18 C18         7.7267    0.7127   -8.0759 C.ar      1 SUB         0.0000 
     19 N19         5.2715    1.3128   -6.7729 N.2       1 SUB         1.0000 
     20 C20         4.0293    0.8341   -6.7823 C.2       1 SUB         0.0000 
     21 N21         3.5723    0.0375   -5.8121 N.pl3     1 SUB         0.0000 
     22 N22         3.3470    1.2465   -7.8602 N.am      1 SUB         0.0000 
     23 C23         1.9350    0.9819   -8.1641 C.3       1 SUB         0.0000 
     24 C24         4.2062    2.0557   -8.6617 C.2       1 SUB         0.0000 
     25 O25         3.8497    2.6222   -9.7019 O.2       1 SUB         0.0000 
     26 C26         5.0940    4.2410   -6.6680 C.ar      1 SUB         0.0000 
     27 C27         3.7294    5.6186   -4.3600 C.ar      1 SUB         0.0000 
     28 H28         2.4017    4.5537   -2.4300 H         1 SUB         0.0000 
     29 H29         2.4494    6.0324   -1.4403 H         1 SUB         0.0000 
     30 H30         1.0814    5.7422   -2.5415 H         1 SUB         0.0000 
     31 H31         2.0835    8.2672   -3.0133 H         1 SUB         0.0000 
     32 H32         4.6974    8.2467   -6.2550 H         1 SUB         0.0000 
     33 H33         6.6140    7.2803   -6.6572 H         1 SUB         0.0000 
     34 H34         8.1338    6.0861   -8.2015 H         1 SUB         0.0000 
     35 H35         7.7069    3.7383   -8.8242 H         1 SUB         0.0000 
     36 H36         5.9245    1.7436  -10.7785 H         1 SUB         0.0000 
     37 H37         7.6610    0.4539  -11.9386 H         1 SUB         0.0000 
     38 H38         9.4771   -0.6607  -10.6570 H         1 SUB         0.0000 
     39 H39         9.5325   -0.4667   -8.1790 H         1 SUB         0.0000 
     40 H40         7.7705    0.7722   -6.9982 H         1 SUB         0.0000 
     41 H41         5.5230    1.7559   -5.9015 H         1 SUB         0.0000 
     42 H42         2.6117   -0.2938   -5.7410 H         1 SUB         0.0000 
     43 H43         1.7611    0.9456   -9.2398 H         1 SUB         0.0000 
     44 H44         1.6131    0.0323   -7.7375 H         1 SUB         0.0000 
     45 H45         1.3192    1.7784   -7.7477 H         1 SUB         0.0000 
     46 H46         4.2395    3.7404   -6.2356 H         1 SUB         0.0000 
     47 H47         3.8621    4.5514   -4.2436 H         1 SUB         0.0000 
     48 H48         4.1873   -0.2042   -5.0338 H         1 SUB         0.0000 
@<TRIPOS>BOND
     1    1    2 1    
     2    1   28 1    
     3    1   29 1    
     4    1   30 1    
     5    2    3 ar   
     6    2   27 ar   
     7    3    4 ar   
     8    3   31 1    
     9    4    5 ar   
    10    5    6 ar   
    11    5   32 1    
    12    6    7 1    
    13    6   27 ar   
    14    7    8 ar   
    15    7   26 ar   
    16    8    9 ar   
    17    8   33 1    
    18    9   10 ar   
    19    9   34 1    
    20   10   11 ar   
    21   10   35 1    
    22   11   12 1    
    23   11   26 ar   
    24   12   13 1    
    25   12   19 1    
    26   12   24 1    
    27   13   14 ar   
    28   13   18 ar   
    29   14   15 ar   
    30   14   36 1    
    31   15   16 ar   
    32   15   37 1    
    33   16   17 ar   
    34   16   38 1    
    35   17   18 ar   
    36   17   39 1    
    37   18   40 1    
    38   19   20 2    
    39   19   41 1    
    40   20   21 1    
    41   20   22 1    
    42   21   42 1    
    43   21   48 1    
    44   22   23 1    
    45   22   24 am   BACKBONE|DICT|INTERRES
    46   23   43 1    
    47   23   44 1    
    48   23   45 1    
    49   24   25 2    
    50   26   46 1    
    51   27   47 1    
@<TRIPOS>SUBSTRUCTURE
     1 SUB         1 GROUP             0       ****    0 ROOT    
