@<TRIPOS>MOLECULE
CAT-4o
45   48    1
SMALL
USER_CHARGES


@<TRIPOS>ATOM
      1 C1          1.9350    0.9819   -8.1641 C.3       1 SUB         0.0000 
      2 N2          3.3470    1.2465   -7.8602 N.am      1 SUB         0.0000 
      3 C3          4.0293    0.8341   -6.7823 C.2       1 SUB         0.0000 
      4 N4          3.5723    0.0375   -5.8121 N.pl3     1 SUB         0.0000 
      5 N5          5.2715    1.3128   -6.7729 N.2       1 SUB         1.0000 
      6 C6          5.5880    2.0970   -7.9680 C.3       1 SUB         0.0000 
      7 C7          6.6812    1.3546   -8.7738 C.ar      1 SUB         0.0000 
      8 C8          7.7267    0.7127   -8.0759 C.ar      1 SUB         0.0000 
      9 C9          8.7414    0.0061   -8.7428 C.ar      1 SUB         0.0000 
     10 C10         8.7093   -0.1053  -10.1381 C.ar      1 SUB         0.0000 
     11 C11         7.6827    0.5240  -10.8606 C.ar      1 SUB         0.0000 
     12 C12         6.6871    1.2594  -10.1863 C.ar      1 SUB         0.0000 
     13 C13         5.9270    3.5490   -7.5840 C.ar      1 SUB         0.0000 
     14 C14         7.0420    4.2290   -8.1280 C.ar      1 SUB         0.0000 
     15 C15         7.2860    5.5680   -7.7770 C.ar      1 SUB         0.0000 
     16 C16         6.4190    6.2460   -6.9010 C.ar      1 SUB         0.0000 
     17 C17         5.3110    5.5930   -6.3180 C.ar      1 SUB         0.0000 
     18 C18         4.3957    6.3094   -5.3699 C.ar      1 SUB         0.0000 
     19 C19         4.1934    7.6873   -5.4817 C.ar      1 SUB         0.0000 
     20 N20         3.3731    8.3790   -4.6450 N.ar      1 SUB         0.0000 
     21 C21         2.7318    7.6825   -3.6650 C.ar      1 SUB         0.0000 
     22 C22         2.8838    6.3048   -3.4908 C.ar      1 SUB         0.0000 
     23 F23         2.2269    5.6543   -2.5036 F         1 SUB         0.0000 
     24 C24         3.7293    5.6116   -4.3583 C.ar      1 SUB         0.0000 
     25 C25         5.0940    4.2410   -6.6680 C.ar      1 SUB         0.0000 
     26 C26         4.2062    2.0557   -8.6617 C.2       1 SUB         0.0000 
     27 O27         3.8497    2.6222   -9.7019 O.2       1 SUB         0.0000 
     28 H28         1.3192    1.7784   -7.7477 H         1 SUB         0.0000 
     29 H29         1.7611    0.9456   -9.2398 H         1 SUB         0.0000 
     30 H30         1.6131    0.0323   -7.7375 H         1 SUB         0.0000 
     31 H31         2.6117   -0.2938   -5.7410 H         1 SUB         0.0000 
     32 H32         5.5231    1.7559   -5.9015 H         1 SUB         0.0000 
     33 H33         7.7705    0.7723   -6.9982 H         1 SUB         0.0000 
     34 H34         9.5327   -0.4662   -8.1791 H         1 SUB         0.0000 
     35 H35         9.4772   -0.6604  -10.6570 H         1 SUB         0.0000 
     36 H36         7.6612    0.4543  -11.9386 H         1 SUB         0.0000 
     37 H37         5.9246    1.7439  -10.7785 H         1 SUB         0.0000 
     38 H38         7.7069    3.7383   -8.8242 H         1 SUB         0.0000 
     39 H39         8.1337    6.0861   -8.2015 H         1 SUB         0.0000 
     40 H40         6.6140    7.2803   -6.6572 H         1 SUB         0.0000 
     41 H41         4.6968    8.2538   -6.2561 H         1 SUB         0.0000 
     42 H42         2.0813    8.2387   -3.0035 H         1 SUB         0.0000 
     43 H43         3.8646    4.5454   -4.2455 H         1 SUB         0.0000 
     44 H44         4.2395    3.7405   -6.2356 H         1 SUB         0.0000 
     45 H45         4.1873   -0.2042   -5.0338 H         1 SUB         0.0000 
@<TRIPOS>BOND
     1    1    2 1    
     2    1   28 1    
     3    1   29 1    
     4    1   30 1    
     5    2    3 1    
     6    2   26 am   BACKBONE|DICT|INTERRES
     7    3    4 1    
     8    3    5 2    
     9    4   31 1    
    10    4   45 1    
    11    5    6 1    
    12    5   32 1    
    13    6    7 1    
    14    6   13 1    
    15    6   26 1    
    16    7    8 ar   
    17    7   12 ar   
    18    8    9 ar   
    19    8   33 1    
    20    9   10 ar   
    21    9   34 1    
    22   10   11 ar   
    23   10   35 1    
    24   11   12 ar   
    25   11   36 1    
    26   12   37 1    
    27   13   14 ar   
    28   13   25 ar   
    29   14   15 ar   
    30   14   38 1    
    31   15   16 ar   
    32   15   39 1    
    33   16   17 ar   
    34   16   40 1    
    35   17   18 1    
    36   17   25 ar   
    37   18   19 ar   
    38   18   24 ar   
    39   19   20 ar   
    40   19   41 1    
    41   20   21 ar   
    42   21   22 ar   
    43   21   42 1    
    44   22   23 1    
    45   22   24 ar   
    46   24   43 1    
    47   25   44 1    
    48   26   27 2    
@<TRIPOS>SUBSTRUCTURE
     1 SUB         1 GROUP             0       ****    0 ROOT    
