@<TRIPOS>MOLECULE
CAT-4l
44   47    1
SMALL
USER_CHARGES


@<TRIPOS>ATOM
      1 C1          1.9350    0.9819   -8.1641 C.3       1 SUB         0.0000 
      2 N2          3.3470    1.2465   -7.8602 N.am      1 SUB         0.0000 
      3 C3          4.0293    0.8341   -6.7823 C.2       1 SUB         0.0000 
      4 N4          3.5723    0.0375   -5.8121 N.pl3     1 SUB         0.0000 
      5 N5          5.2715    1.3128   -6.7729 N.2       1 SUB         1.0000 
      6 C6          5.5880    2.0970   -7.9680 C.3       1 SUB         0.0000 
      7 C7          6.6812    1.3546   -8.7738 C.ar      1 SUB         0.0000 
      8 C8          6.6871    1.2594  -10.1863 C.ar      1 SUB         0.0000 
      9 C9          7.6827    0.5240  -10.8606 C.ar      1 SUB         0.0000 
     10 C10         8.7093   -0.1053  -10.1381 C.ar      1 SUB         0.0000 
     11 C11         8.7414    0.0061   -8.7428 C.ar      1 SUB         0.0000 
     12 C12         7.7267    0.7127   -8.0759 C.ar      1 SUB         0.0000 
     13 C13         5.9270    3.5490   -7.5840 C.ar      1 SUB         0.0000 
     14 C14         7.0420    4.2290   -8.1280 C.ar      1 SUB         0.0000 
     15 C15         7.2860    5.5680   -7.7770 C.ar      1 SUB         0.0000 
     16 C16         6.4190    6.2460   -6.9010 C.ar      1 SUB         0.0000 
     17 C17         5.3110    5.5930   -6.3180 C.ar      1 SUB         0.0000 
     18 C18         4.3866    6.2950   -5.3902 C.ar      1 SUB         0.0000 
     19 C19         3.6123    5.6068   -4.4219 C.ar      1 SUB         0.0000 
     20 N20         2.6967    6.2120   -3.6323 N.ar      1 SUB         0.0000 
     21 C21         2.5515    7.5409   -3.8163 C.ar      1 SUB         0.0000 
     22 C22         3.3383    8.2529   -4.7464 C.ar      1 SUB         0.0000 
     23 N23         4.2568    7.6393   -5.5317 N.ar      1 SUB         0.0000 
     24 C24         5.0940    4.2410   -6.6680 C.ar      1 SUB         0.0000 
     25 C25         4.2062    2.0557   -8.6617 C.2       1 SUB         0.0000 
     26 O26         3.8497    2.6222   -9.7019 O.2       1 SUB         0.0000 
     27 H27         1.7611    0.9456   -9.2398 H         1 SUB         0.0000 
     28 H28         1.6131    0.0323   -7.7375 H         1 SUB         0.0000 
     29 H29         1.3192    1.7784   -7.7477 H         1 SUB         0.0000 
     30 H30         4.1873   -0.2042   -5.0338 H         1 SUB         0.0000 
     31 H31         5.9486    1.1511   -6.0274 H         1 SUB         0.0000 
     32 H32         5.9187    1.7250  -10.7769 H         1 SUB         0.0000 
     33 H33         7.6573    0.4336  -11.9359 H         1 SUB         0.0000 
     34 H34         9.4634   -0.6860  -10.6404 H         1 SUB         0.0000 
     35 H35         9.5286   -0.4687   -8.1734 H         1 SUB         0.0000 
     36 H36         7.7485    0.7376   -7.0022 H         1 SUB         0.0000 
     37 H37         7.7164    3.7458   -8.8225 H         1 SUB         0.0000 
     38 H38         8.1364    6.0917   -8.1918 H         1 SUB         0.0000 
     39 H39         6.6064    7.2861   -6.6762 H         1 SUB         0.0000 
     40 H40         3.7315    4.5489   -4.2727 H         1 SUB         0.0000 
     41 H41         1.8076    8.0416   -3.2143 H         1 SUB         0.0000 
     42 H42         3.2021    9.3156   -4.8654 H         1 SUB         0.0000 
     43 H43         4.2353    3.7338   -6.2554 H         1 SUB         0.0000 
     44 H44         2.6117   -0.2938   -5.7410 H         1 SUB         0.0000 
@<TRIPOS>BOND
     1    1    2 1    
     2    1   27 1    
     3    1   28 1    
     4    1   29 1    
     5    2    3 1    
     6    2   25 am   BACKBONE|DICT|INTERRES
     7    3    4 1    
     8    3    5 2    
     9    4   30 1    
    10    4   44 1    
    11    5    6 1    
    12    5   31 1    
    13    6    7 1    
    14    6   13 1    
    15    6   25 1    
    16    7    8 ar   
    17    7   12 ar   
    18    8    9 ar   
    19    8   32 1    
    20    9   10 ar   
    21    9   33 1    
    22   10   11 ar   
    23   10   34 1    
    24   11   12 ar   
    25   11   35 1    
    26   12   36 1    
    27   13   14 ar   
    28   13   24 ar   
    29   14   15 ar   
    30   14   37 1    
    31   15   16 ar   
    32   15   38 1    
    33   16   17 ar   
    34   16   39 1    
    35   17   18 1    
    36   17   24 ar   
    37   18   19 ar   
    38   18   23 ar   
    39   19   20 ar   
    40   19   40 1    
    41   20   21 ar   
    42   21   22 ar   
    43   21   41 1    
    44   22   23 ar   
    45   22   42 1    
    46   24   43 1    
    47   25   26 2    
@<TRIPOS>SUBSTRUCTURE
     1 SUB         1 GROUP             0       ****    0 ROOT    
