@<TRIPOS>MOLECULE
CAT-4i
45   48    1
SMALL
USER_CHARGES


@<TRIPOS>ATOM
      1 C1          1.9350    0.9819   -8.1641 C.3       1 SUB         0.0000 
      2 N2          3.3470    1.2465   -7.8602 N.am      1 SUB         0.0000 
      3 C3          4.0293    0.8341   -6.7823 C.2       1 SUB         0.0000 
      4 N4          3.5723    0.0375   -5.8121 N.pl3     1 SUB         0.0000 
      5 N5          5.2715    1.3128   -6.7729 N.2       1 SUB         1.0000 
      6 C6          5.5880    2.0970   -7.9680 C.3       1 SUB         0.0000 
      7 C7          6.6812    1.3546   -8.7738 C.ar      1 SUB         0.0000 
      8 C8          7.7267    0.7127   -8.0759 C.ar      1 SUB         0.0000 
      9 C9          8.7414    0.0061   -8.7428 C.ar      1 SUB         0.0000 
     10 C10         8.7093   -0.1053  -10.1381 C.ar      1 SUB         0.0000 
     11 C11         7.6827    0.5240  -10.8606 C.ar      1 SUB         0.0000 
     12 C12         6.6871    1.2594  -10.1863 C.ar      1 SUB         0.0000 
     13 C13         5.9270    3.5490   -7.5840 C.ar      1 SUB         0.0000 
     14 C14         7.0420    4.2290   -8.1280 C.ar      1 SUB         0.0000 
     15 C15         7.2860    5.5680   -7.7770 C.ar      1 SUB         0.0000 
     16 C16         6.4190    6.2460   -6.9010 C.ar      1 SUB         0.0000 
     17 C17         5.3110    5.5930   -6.3180 C.ar      1 SUB         0.0000 
     18 C18         4.3887    6.3181   -5.3834 C.ar      1 SUB         0.0000 
     19 C19         3.7094    5.6280   -4.3808 C.ar      1 SUB         0.0000 
     20 C20         2.8569    6.3233   -3.5234 C.ar      1 SUB         0.0000 
     21 C21         2.7064    7.6978   -3.6934 C.ar      1 SUB         0.0000 
     22 C22         3.4176    8.3214   -4.7178 C.ar      1 SUB         0.0000 
     23 N23         4.2510    7.6564   -5.5598 N.ar      1 SUB         0.0000 
     24 C24         5.0940    4.2410   -6.6680 C.ar      1 SUB         0.0000 
     25 C25         4.2062    2.0557   -8.6617 C.2       1 SUB         0.0000 
     26 O26         3.8497    2.6222   -9.7019 O.2       1 SUB         0.0000 
     27 H27         1.7611    0.9456   -9.2398 H         1 SUB         0.0000 
     28 H28         1.6131    0.0323   -7.7375 H         1 SUB         0.0000 
     29 H29         1.3192    1.7784   -7.7477 H         1 SUB         0.0000 
     30 H30         4.1873   -0.2042   -5.0338 H         1 SUB         0.0000 
     31 H31         5.5056    1.7962   -5.9145 H         1 SUB         0.0000 
     32 H32         7.7627    0.7565   -6.9953 H         1 SUB         0.0000 
     33 H33         9.5441   -0.4497   -8.1782 H         1 SUB         0.0000 
     34 H34         9.4724   -0.6738  -10.6533 H         1 SUB         0.0000 
     35 H35         7.6538    0.4457  -11.9395 H         1 SUB         0.0000 
     36 H36         5.9193    1.7555  -10.7652 H         1 SUB         0.0000 
     37 H37         7.6849    3.7208   -8.8303 H         1 SUB         0.0000 
     38 H38         8.1264    6.0897   -8.2108 H         1 SUB         0.0000 
     39 H39         6.6100    7.2834   -6.6593 H         1 SUB         0.0000 
     40 H40         3.8436    4.5607   -4.2697 H         1 SUB         0.0000 
     41 H41         2.3218    5.8042   -2.7397 H         1 SUB         0.0000 
     42 H42         2.0539    8.2689   -3.0471 H         1 SUB         0.0000 
     43 H43         3.3195    9.3892   -4.8728 H         1 SUB         0.0000 
     44 H44         4.2323    3.7453   -6.2401 H         1 SUB         0.0000 
     45 H45         2.6117   -0.2938   -5.7410 H         1 SUB         0.0000 
@<TRIPOS>BOND
     1    1    2 1    
     2    1   27 1    
     3    1   28 1    
     4    1   29 1    
     5    2    3 1    
     6    2   25 am   BACKBONE|DICT|INTERRES
     7    3    4 1    
     8    3    5 2    
     9    4   30 1    
    10    4   45 1    
    11    5    6 1    
    12    5   31 1    
    13    6    7 1    
    14    6   13 1    
    15    6   25 1    
    16    7    8 ar   
    17    7   12 ar   
    18    8    9 ar   
    19    8   32 1    
    20    9   10 ar   
    21    9   33 1    
    22   10   11 ar   
    23   10   34 1    
    24   11   12 ar   
    25   11   35 1    
    26   12   36 1    
    27   13   14 ar   
    28   13   24 ar   
    29   14   15 ar   
    30   14   37 1    
    31   15   16 ar   
    32   15   38 1    
    33   16   17 ar   
    34   16   39 1    
    35   17   18 1    
    36   17   24 ar   
    37   18   19 ar   
    38   18   23 ar   
    39   19   20 ar   
    40   19   40 1    
    41   20   21 ar   
    42   20   41 1    
    43   21   22 ar   
    44   21   42 1    
    45   22   23 ar   
    46   22   43 1    
    47   24   44 1    
    48   25   26 2    
@<TRIPOS>SUBSTRUCTURE
     1 SUB         1 GROUP             0       ****    0 ROOT    
