@<TRIPOS>MOLECULE
20669(2qbr)
42   44    1
SMALL
USER_CHARGES


@<TRIPOS>ATOM
      1 O1         -4.0101   -3.8282   10.4463 O.co2     1 SUB         0.0000 
      2 C2         -2.8433   -4.1731   10.1534 C.2       1 SUB         0.0000 
      3 O3         -2.0579   -3.5201    9.4315 O.co2     1 SUB         0.0000 
      4 C4         -2.3089   -5.4829   10.7369 C.3       1 SUB         0.0000 
      5 O5         -0.9457   -5.6810   10.3860 O.3       1 SUB         0.0000 
      6 C6         -0.4080   -6.8160   10.8820 C.2       1 SUB         0.0000 
      7 C7         -0.7080   -8.1120   10.3780 C.2       1 SUB         0.0000 
      8 Br8        -1.9008   -8.3655    8.9124 Br        1 SUB         0.0000 
      9 C9         -0.0570   -9.1390   11.0170 C.2       1 SUB         0.0000 
     10 C10        -0.1330  -10.5830   10.7900 C.ar      1 SUB         0.0000 
     11 C11         1.0010  -11.4160   10.9060 C.ar      1 SUB         0.0000 
     12 C12         0.9070  -12.7950   10.6290 C.ar      1 SUB         0.0000 
     13 C13        -0.3150  -13.3540   10.2000 C.ar      1 SUB         0.0000 
     14 C14        -1.4590  -12.5370   10.0810 C.ar      1 SUB         0.0000 
     15 N15        -2.7378  -13.1041    9.6631 N.pl3     1 SUB         0.0000 
     16 C16        -2.8415  -14.5293    9.3638 C.3       1 SUB         0.0000 
     17 C17        -3.2807  -14.7108    7.9411 C.ar      1 SUB         0.0000 
     18 C18        -2.5048  -14.2056    6.9045 C.ar      1 SUB         0.0000 
     19 C19        -2.9118  -14.3738    5.5863 C.ar      1 SUB         0.0000 
     20 C20        -4.0945  -15.0471    5.3046 C.ar      1 SUB         0.0000 
     21 C21        -4.8703  -15.5523    6.3412 C.ar      1 SUB         0.0000 
     22 C22        -4.4634  -15.3841    7.6594 C.ar      1 SUB         0.0000 
     23 C23        -1.3570  -11.1730   10.4110 C.ar      1 SUB         0.0000 
     24 S24         0.9940   -8.4990   12.2590 S.3       1 SUB         0.0000 
     25 C25         0.5050   -6.8520   11.9070 C.2       1 SUB         0.0000 
     26 C26         1.1169   -5.7806   12.7263 C.2       1 SUB         0.0000 
     27 O27         0.7873   -4.5952   12.5048 O.co2     1 SUB         0.0000 
     28 O28         1.9428   -6.0852   13.6160 O.co2     1 SUB         0.0000 
     29 H29        -2.3887   -5.4559   11.8236 H         1 SUB         0.0000 
     30 H30        -2.8933   -6.3180   10.3504 H         1 SUB         0.0000 
     31 H31         1.9527  -10.9998   11.2031 H         1 SUB         0.0000 
     32 H32         1.7748  -13.4277   10.7439 H         1 SUB         0.0000 
     33 H33        -0.3472  -14.4082    9.9699 H         1 SUB         0.0000 
     34 H34        -3.5709  -12.4958    9.5791 H         1 SUB         0.0000 
     35 H35        -1.8700  -15.0023    9.5074 H         1 SUB         0.0000 
     36 H36        -3.5713  -14.9884   10.0307 H         1 SUB         0.0000 
     37 H37        -1.5840  -13.6814    7.1238 H         1 SUB         0.0000 
     38 H38        -2.3077  -13.9805    4.7793 H         1 SUB         0.0000 
     39 H39        -4.4113  -15.1780    4.2783 H         1 SUB         0.0000 
     40 H40        -5.7912  -16.0765    6.1219 H         1 SUB         0.0000 
     41 H41        -5.0675  -15.7774    8.4665 H         1 SUB         0.0000 
     42 H42        -2.2499  -10.5657   10.3764 H         1 SUB         0.0000 
@<TRIPOS>BOND
     1    1    2 2    
     2    2    3 1    
     3    2    4 1    
     4    4    5 1    
     5    4   29 1    
     6    4   30 1    
     7    5    6 1    
     8    6   25 2    
     9    6    7 1    
    10    7    8 1    
    11    7    9 2    
    12    9   10 1    
    13    9   24 1    
    14   10   23 ar   
    15   10   11 ar   
    16   11   12 ar   
    17   11   31 1    
    18   12   13 ar   
    19   12   32 1    
    20   13   14 ar   
    21   13   33 1    
    22   14   15 1    
    23   14   23 ar   
    24   15   16 1    
    25   15   34 1    
    26   16   17 1    
    27   16   35 1    
    28   16   36 1    
    29   17   22 ar   
    30   17   18 ar   
    31   18   19 ar   
    32   18   37 1    
    33   19   20 ar   
    34   19   38 1    
    35   20   21 ar   
    36   20   39 1    
    37   21   22 ar   
    38   21   40 1    
    39   22   41 1    
    40   23   42 1    
    41   24   25 1    
    42   25   26 1    
    43   26   27 2    
    44   26   28 1    
@<TRIPOS>SUBSTRUCTURE
     1 SUB         1 GROUP             0       ****    0 ROOT    
