@<TRIPOS>MOLECULE
23472
42   44    1
SMALL
USER_CHARGES


@<TRIPOS>ATOM
      1 O1         -4.0101   -3.8282   10.4463 O.co2     1 SUB         0.0000 
      2 C2         -2.8433   -4.1731   10.1534 C.2       1 SUB         0.0000 
      3 O3         -2.0579   -3.5201    9.4315 O.co2     1 SUB         0.0000 
      4 C4         -2.3089   -5.4829   10.7369 C.3       1 SUB         0.0000 
      5 O5         -0.9457   -5.6810   10.3860 O.3       1 SUB         0.0000 
      6 C6         -0.4080   -6.8160   10.8820 C.2       1 SUB         0.0000 
      7 C7         -0.7080   -8.1120   10.3780 C.2       1 SUB         0.0000 
      8 Br8        -1.9008   -8.3655    8.9124 Br        1 SUB         0.0000 
      9 C9         -0.0570   -9.1390   11.0170 C.2       1 SUB         0.0000 
     10 C10        -0.1330  -10.5830   10.7900 C.ar      1 SUB         0.0000 
     11 C11         1.0010  -11.4160   10.9060 C.ar      1 SUB         0.0000 
     12 C12         0.9070  -12.7950   10.6290 C.ar      1 SUB         0.0000 
     13 C13        -0.3150  -13.3540   10.2000 C.ar      1 SUB         0.0000 
     14 C14        -1.4590  -12.5370   10.0810 C.ar      1 SUB         0.0000 
     15 N15        -2.7372  -13.1034    9.6604 N.pl3     1 SUB         0.0000 
     16 S16        -2.8601  -14.8013    9.3003 S.o2      1 SUB         0.0000 
     17 O17        -1.5075  -15.3663    9.3565 O.2       1 SUB         0.0000 
     18 O18        -3.9571  -15.3480   10.1066 O.2       1 SUB         0.0000 
     19 C19        -3.3814  -14.8192    7.5985 C.ar      1 SUB         0.0000 
     20 C20        -4.7399  -14.8176    7.2897 C.ar      1 SUB         0.0000 
     21 C21        -5.1579  -14.8315    5.9619 C.ar      1 SUB         0.0000 
     22 C22        -4.2083  -14.8471    4.9474 C.ar      1 SUB         0.0000 
     23 F23        -4.6041  -14.8607    3.6551 F         1 SUB         0.0000 
     24 C24        -2.8520  -14.8487    5.2568 C.ar      1 SUB         0.0000 
     25 C25        -2.4296  -14.8348    6.5831 C.ar      1 SUB         0.0000 
     26 C26        -1.3570  -11.1730   10.4110 C.ar      1 SUB         0.0000 
     27 S27         0.9940   -8.4990   12.2590 S.3       1 SUB         0.0000 
     28 C28         0.5050   -6.8520   11.9070 C.2       1 SUB         0.0000 
     29 C29         1.1169   -5.7806   12.7263 C.2       1 SUB         0.0000 
     30 O30         0.7873   -4.5952   12.5048 O.co2     1 SUB         0.0000 
     31 O31         1.9428   -6.0852   13.6160 O.co2     1 SUB         0.0000 
     32 H32        -2.3887   -5.4559   11.8236 H         1 SUB         0.0000 
     33 H33        -2.8933   -6.3180   10.3504 H         1 SUB         0.0000 
     34 H34         1.9487  -11.0014   11.2170 H         1 SUB         0.0000 
     35 H35         1.7730  -13.4291   10.7487 H         1 SUB         0.0000 
     36 H36        -0.3548  -14.4081    9.9743 H         1 SUB         0.0000 
     37 H37        -3.5702  -12.4950    9.5764 H         1 SUB         0.0000 
     38 H38        -5.4737  -14.8054    8.0844 H         1 SUB         0.0000 
     39 H39        -6.2100  -14.8303    5.7159 H         1 SUB         0.0000 
     40 H40        -2.1256  -14.8609    4.4570 H         1 SUB         0.0000 
     41 H41        -1.3744  -14.8361    6.8209 H         1 SUB         0.0000 
     42 H42        -2.2482  -10.5642   10.3604 H         1 SUB         0.0000 
@<TRIPOS>BOND
     1    1    2 2    
     2    2    3 1    
     3    2    4 1    
     4    4    5 1    
     5    4   32 1    
     6    4   33 1    
     7    5    6 1    
     8    6   28 2    
     9    6    7 1    
    10    7    8 1    
    11    7    9 2    
    12    9   10 1    
    13    9   27 1    
    14   10   26 ar   
    15   10   11 ar   
    16   11   12 ar   
    17   11   34 1    
    18   12   13 ar   
    19   12   35 1    
    20   13   14 ar   
    21   13   36 1    
    22   14   15 1    
    23   14   26 ar   
    24   15   16 1    
    25   15   37 1    
    26   16   17 2    
    27   16   18 2    
    28   16   19 1    
    29   19   25 ar   
    30   19   20 ar   
    31   20   21 ar   
    32   20   38 1    
    33   21   22 ar   
    34   21   39 1    
    35   22   23 1    
    36   22   24 ar   
    37   24   25 ar   
    38   24   40 1    
    39   25   41 1    
    40   26   42 1    
    41   27   28 1    
    42   28   29 1    
    43   29   30 2    
    44   29   31 1    
@<TRIPOS>SUBSTRUCTURE
     1 SUB         1 GROUP             0       ****    0 ROOT    
