@<TRIPOS>MOLECULE
23473
41   43    1
SMALL
USER_CHARGES


@<TRIPOS>ATOM
      1 O1         -4.0101   -3.8282   10.4463 O.co2     1 SUB         0.0000 
      2 C2         -2.8433   -4.1731   10.1534 C.2       1 SUB         0.0000 
      3 O3         -2.0579   -3.5201    9.4315 O.co2     1 SUB         0.0000 
      4 C4         -2.3089   -5.4829   10.7369 C.3       1 SUB         0.0000 
      5 O5         -0.9457   -5.6810   10.3860 O.3       1 SUB         0.0000 
      6 C6         -0.4080   -6.8160   10.8820 C.2       1 SUB         0.0000 
      7 C7         -0.7080   -8.1120   10.3780 C.2       1 SUB         0.0000 
      8 Br8        -1.9008   -8.3655    8.9124 Br        1 SUB         0.0000 
      9 C9         -0.0570   -9.1390   11.0170 C.2       1 SUB         0.0000 
     10 C10        -0.1330  -10.5830   10.7900 C.ar      1 SUB         0.0000 
     11 C11         1.0010  -11.4160   10.9060 C.ar      1 SUB         0.0000 
     12 C12         0.9070  -12.7950   10.6290 C.ar      1 SUB         0.0000 
     13 C13        -0.3150  -13.3540   10.2000 C.ar      1 SUB         0.0000 
     14 C14        -1.4590  -12.5370   10.0810 C.ar      1 SUB         0.0000 
     15 O15        -2.7165  -13.0131    9.6716 O.3       1 SUB         0.0000 
     16 C16        -2.8899  -14.2326    8.8878 C.3       1 SUB         0.0000 
     17 C17        -2.7037  -14.0066    7.3930 C.ar      1 SUB         0.0000 
     18 C18        -1.4241  -13.8656    6.8442 C.ar      1 SUB         0.0000 
     19 C19        -1.2643  -13.6784    5.4710 C.ar      1 SUB         0.0000 
     20 C20        -2.3787  -13.6505    4.6361 C.ar      1 SUB         0.0000 
     21 C21        -3.6562  -13.7915    5.1753 C.ar      1 SUB         0.0000 
     22 C22        -3.8203  -13.9657    6.5500 C.ar      1 SUB         0.0000 
     23 C23        -1.3570  -11.1730   10.4110 C.ar      1 SUB         0.0000 
     24 S24         0.9940   -8.4990   12.2590 S.3       1 SUB         0.0000 
     25 C25         0.5050   -6.8520   11.9070 C.2       1 SUB         0.0000 
     26 C26         1.1169   -5.7806   12.7263 C.2       1 SUB         0.0000 
     27 O27         0.7873   -4.5952   12.5048 O.co2     1 SUB         0.0000 
     28 O28         1.9428   -6.0852   13.6160 O.co2     1 SUB         0.0000 
     29 H29        -2.4064   -5.4616   11.8233 H         1 SUB         0.0000 
     30 H30        -2.9306   -6.3002   10.3669 H         1 SUB         0.0000 
     31 H31         1.9527  -11.0000   11.2032 H         1 SUB         0.0000 
     32 H32         1.7751  -13.4272   10.7442 H         1 SUB         0.0000 
     33 H33        -0.3392  -14.4086    9.9723 H         1 SUB         0.0000 
     34 H34        -2.1628  -14.9852    9.1965 H         1 SUB         0.0000 
     35 H35        -3.8890  -14.6385    9.0554 H         1 SUB         0.0000 
     36 H36        -0.5522  -13.9005    7.4811 H         1 SUB         0.0000 
     37 H37        -0.2752  -13.5567    5.0547 H         1 SUB         0.0000 
     38 H38        -2.2529  -13.5225    3.5710 H         1 SUB         0.0000 
     39 H39        -4.5207  -13.7675    4.5283 H         1 SUB         0.0000 
     40 H40        -4.8148  -14.0675    6.9592 H         1 SUB         0.0000 
     41 H41        -2.2521  -10.5693   10.3749 H         1 SUB         0.0000 
@<TRIPOS>BOND
     1    1    2 2    
     2    2    3 1    
     3    2    4 1    
     4    4    5 1    
     5    4   29 1    
     6    4   30 1    
     7    5    6 1    
     8    6   25 2    
     9    6    7 1    
    10    7    8 1    
    11    7    9 2    
    12    9   10 1    
    13    9   24 1    
    14   10   23 ar   
    15   10   11 ar   
    16   11   12 ar   
    17   11   31 1    
    18   12   13 ar   
    19   12   32 1    
    20   13   14 ar   
    21   13   33 1    
    22   14   15 1    
    23   14   23 ar   
    24   15   16 1    
    25   16   17 1    
    26   16   34 1    
    27   16   35 1    
    28   17   22 ar   
    29   17   18 ar   
    30   18   19 ar   
    31   18   36 1    
    32   19   20 ar   
    33   19   37 1    
    34   20   21 ar   
    35   20   38 1    
    36   21   22 ar   
    37   21   39 1    
    38   22   40 1    
    39   23   41 1    
    40   24   25 1    
    41   25   26 1    
    42   26   27 2    
    43   26   28 1    
@<TRIPOS>SUBSTRUCTURE
     1 SUB         1 GROUP             0       ****    0 ROOT    
